moringin
     RDKit          3D

 38 39  0  0  0  0  0  0  0  0999 V2000
   -2.3489   -0.0840   -2.1929 C   0  0  0  0  0  0  0  0  0  0  0  0
   -2.3898    1.1245   -1.2594 C   0  0  1  0  0  0  0  0  0  0  0  0
   -3.6948    1.2302   -0.4396 C   0  0  1  0  0  0  0  0  0  0  0  0
   -3.7008    0.3029    0.7777 C   0  0  2  0  0  0  0  0  0  0  0  0
   -2.3865    0.3923    1.5537 C   0  0  2  0  0  0  0  0  0  0  0  0
   -1.1820    0.2079    0.6114 C   0  0  1  0  0  0  0  0  0  0  0  0
   -1.2138    1.1726   -0.4377 O   0  0  0  0  0  0  0  0  0  0  0  0
   -0.0163    0.3783    1.4406 O   0  0  0  0  0  0  0  0  0  0  0  0
    1.1805   -0.0718    0.9585 C   0  0  0  0  0  0  0  0  0  0  0  0
    1.4481   -0.4447   -0.3575 C   0  0  0  0  0  0  0  0  0  0  0  0
    2.7246   -0.8900   -0.7203 C   0  0  0  0  0  0  0  0  0  0  0  0
    3.7511   -0.9643    0.2292 C   0  0  0  0  0  0  0  0  0  0  0  0
    3.4818   -0.5738    1.5461 C   0  0  0  0  0  0  0  0  0  0  0  0
    2.2070   -0.1291    1.9037 C   0  0  0  0  0  0  0  0  0  0  0  0
    5.1342   -1.4321   -0.1595 C   0  0  0  0  0  0  0  0  0  0  0  0
    6.1561   -0.3811   -0.0253 N   0  0  0  0  0  0  0  0  0  0  0  0
    6.2135    0.3584   -0.9350 C   0  0  0  0  0  0  0  0  0  0  0  0
    6.3147    1.4805   -2.3365 S   0  0  0  0  0  0  0  0  0  0  0  0
   -2.4006   -0.6224    2.5788 O   0  0  0  0  0  0  0  0  0  0  0  0
   -3.9379   -1.0536    0.3820 O   0  0  0  0  0  0  0  0  0  0  0  0
   -3.8352    2.5844    0.0175 O   0  0  0  0  0  0  0  0  0  0  0  0
   -1.4167   -0.0829   -2.7683 H   0  0  0  0  0  0  0  0  0  0  0  0
   -2.3787   -1.0344   -1.6545 H   0  0  0  0  0  0  0  0  0  0  0  0
   -3.1879   -0.0634   -2.8954 H   0  0  0  0  0  0  0  0  0  0  0  0
   -2.3231    2.0170   -1.8943 H   0  0  0  0  0  0  0  0  0  0  0  0
   -4.5490    1.0189   -1.0936 H   0  0  0  0  0  0  0  0  0  0  0  0
   -4.5247    0.5710    1.4502 H   0  0  0  0  0  0  0  0  0  0  0  0
   -2.3191    1.3655    2.0554 H   0  0  0  0  0  0  0  0  0  0  0  0
   -1.1830   -0.8163    0.2173 H   0  0  0  0  0  0  0  0  0  0  0  0
    0.6920   -0.3799   -1.1331 H   0  0  0  0  0  0  0  0  0  0  0  0
    2.9082   -1.1676   -1.7562 H   0  0  0  0  0  0  0  0  0  0  0  0
    4.2672   -0.6045    2.2986 H   0  0  0  0  0  0  0  0  0  0  0  0
    2.0161    0.1785    2.9288 H   0  0  0  0  0  0  0  0  0  0  0  0
    5.4099   -2.2622    0.5038 H   0  0  0  0  0  0  0  0  0  0  0  0
    5.1305   -1.8600   -1.1725 H   0  0  0  0  0  0  0  0  0  0  0  0
   -1.5173   -0.5788    2.9966 H   0  0  0  0  0  0  0  0  0  0  0  0
   -3.7793   -1.5807    1.1936 H   0  0  0  0  0  0  0  0  0  0  0  0
   -4.7499    2.6944    0.3318 H   0  0  0  0  0  0  0  0  0  0  0  0
  1  2  1  0
  2  3  1  0
  3  4  1  0
  4  5  1  0
  5  6  1  0
  6  7  1  0
  6  8  1  0
  8  9  1  0
  9 10  1  0
 10 11  2  0
 11 12  1  0
 12 13  2  0
 13 14  1  0
 12 15  1  0
 15 16  1  0
 16 17  2  0
 17 18  2  0
  5 19  1  0
  4 20  1  0
  3 21  1  0
  7  2  1  0
 14  9  2  0
  1 22  1  0
  1 23  1  0
  1 24  1  0
  2 25  1  6
  3 26  1  6
  4 27  1  1
  5 28  1  1
  6 29  1  6
 10 30  1  0
 11 31  1  0
 13 32  1  0
 14 33  1  0
 15 34  1  0
 15 35  1  0
 19 36  1  0
 20 37  1  0
 21 38  1  0
M  END
$$$$
glucomoringin
     RDKit          3D

 66 67  0  0  0  0  0  0  0  0999 V2000
   -6.0526    1.2250    1.6848 C   0  0  0  0  0  0  0  0  0  0  0  0
   -6.8206    0.3590    0.6911 C   0  0  1  0  0  0  0  0  0  0  0  0
   -7.4144    1.1998   -0.4560 C   0  0  1  0  0  0  0  0  0  0  0  0
   -7.6197    0.3088   -1.6809 C   0  0  2  0  0  0  0  0  0  0  0  0
   -6.2874   -0.2964   -2.1422 C   0  0  2  0  0  0  0  0  0  0  0  0
   -5.2832   -0.4208   -0.9705 C   0  0  1  0  0  0  0  0  0  0  0  0
   -5.9837   -0.7180    0.2353 O   0  0  0  0  0  0  0  0  0  0  0  0
   -4.3808   -1.4744   -1.3392 O   0  0  0  0  0  0  0  0  0  0  0  0
   -3.1168   -1.4054   -0.8236 C   0  0  0  0  0  0  0  0  0  0  0  0
   -2.7677   -0.7831    0.3729 C   0  0  0  0  0  0  0  0  0  0  0  0
   -1.4328   -0.7563    0.7861 C   0  0  0  0  0  0  0  0  0  0  0  0
   -0.4338   -1.3662    0.0161 C   0  0  0  0  0  0  0  0  0  0  0  0
   -0.7962   -2.0203   -1.1672 C   0  0  0  0  0  0  0  0  0  0  0  0
   -2.1307   -2.0435   -1.5783 C   0  0  0  0  0  0  0  0  0  0  0  0
    1.0126   -1.3066    0.4553 C   0  0  0  0  0  0  0  0  0  0  0  0
    1.8359   -0.3443   -0.3780 C   0  0  0  0  0  0  0  0  0  0  0  0
    1.7817    0.9519   -0.3798 N   0  0  0  0  0  0  0  0  0  0  0  0
    0.9863    1.4301    0.6940 O   0  0  0  0  0  0  0  0  0  0  0  0
    1.8526    1.9062    2.0347 S   0  0  0  0  0  0  0  0  0  0  0  0
    2.9704    0.9531    2.1120 O   0  0  0  0  0  0  0  0  0  0  0  0
    0.8892    1.7669    3.1235 O   0  0  0  0  0  0  0  0  0  0  0  0
    2.2626    3.2773    1.7460 O   0  0  0  0  0  0  0  0  0  0  0  0
    3.0400   -1.0685   -1.4465 S   0  0  0  0  0  0  0  0  0  0  0  0
    4.4994   -0.3819   -0.5583 C   0  0  1  0  0  0  0  0  0  0  0  0
    4.9160   -1.2822    0.6310 C   0  0  1  0  0  0  0  0  0  0  0  0
    6.1707   -0.6921    1.3006 C   0  0  2  0  0  0  0  0  0  0  0  0
    7.2669   -0.3772    0.2730 C   0  0  1  0  0  0  0  0  0  0  0  0
    6.6913    0.4443   -0.8909 C   0  0  2  0  0  0  0  0  0  0  0  0
    5.5917   -0.2496   -1.4854 O   0  0  0  0  0  0  0  0  0  0  0  0
    7.7448    0.6895   -1.9779 C   0  0  0  0  0  0  0  0  0  0  0  0
    8.8457    1.4446   -1.4732 O   0  0  0  0  0  0  0  0  0  0  0  0
    8.3373    0.3015    0.9468 O   0  0  0  0  0  0  0  0  0  0  0  0
    6.7215   -1.6151    2.2588 O   0  0  0  0  0  0  0  0  0  0  0  0
    3.8678   -1.4391    1.5964 O   0  0  0  0  0  0  0  0  0  0  0  0
   -5.7411    0.5303   -3.1946 O   0  0  0  0  0  0  0  0  0  0  0  0
   -8.2271    1.0813   -2.7314 O   0  0  0  0  0  0  0  0  0  0  0  0
   -8.6610    1.7819   -0.0637 O   0  0  0  0  0  0  0  0  0  0  0  0
    0.0000    0.0000    0.0000 K   0  0  0  0  0 15  0  0  0  0  0  0
   -5.6521    0.6088    2.4969 H   0  0  0  0  0  0  0  0  0  0  0  0
   -6.6951    1.9983    2.1167 H   0  0  0  0  0  0  0  0  0  0  0  0
   -5.1957    1.7120    1.2076 H   0  0  0  0  0  0  0  0  0  0  0  0
   -7.6395   -0.1145    1.2467 H   0  0  0  0  0  0  0  0  0  0  0  0
   -6.7527    2.0343   -0.7197 H   0  0  0  0  0  0  0  0  0  0  0  0
   -8.3290   -0.4878   -1.4256 H   0  0  0  0  0  0  0  0  0  0  0  0
   -6.4837   -1.2734   -2.6000 H   0  0  0  0  0  0  0  0  0  0  0  0
   -4.7292    0.5242   -0.8757 H   0  0  0  0  0  0  0  0  0  0  0  0
   -3.5084   -0.3190    1.0150 H   0  0  0  0  0  0  0  0  0  0  0  0
   -1.1741   -0.2469    1.7152 H   0  0  0  0  0  0  0  0  0  0  0  0
   -0.0414   -2.5107   -1.7778 H   0  0  0  0  0  0  0  0  0  0  0  0
   -2.3968   -2.5530   -2.5001 H   0  0  0  0  0  0  0  0  0  0  0  0
    1.4308   -2.3194    0.4062 H   0  0  0  0  0  0  0  0  0  0  0  0
    1.0735   -1.0144    1.5092 H   0  0  0  0  0  0  0  0  0  0  0  0
    4.2455    0.6228   -0.2066 H   0  0  0  0  0  0  0  0  0  0  0  0
    5.1633   -2.2889    0.2709 H   0  0  0  0  0  0  0  0  0  0  0  0
    5.9053    0.2076    1.8696 H   0  0  0  0  0  0  0  0  0  0  0  0
    7.6781   -1.3235   -0.1014 H   0  0  0  0  0  0  0  0  0  0  0  0
    6.3635    1.4254   -0.5209 H   0  0  0  0  0  0  0  0  0  0  0  0
    7.3099    1.2225   -2.8309 H   0  0  0  0  0  0  0  0  0  0  0  0
    8.1287   -0.2613   -2.3637 H   0  0  0  0  0  0  0  0  0  0  0  0
    8.5320    2.3646   -1.3806 H   0  0  0  0  0  0  0  0  0  0  0  0
    8.9439    0.6271    0.2479 H   0  0  0  0  0  0  0  0  0  0  0  0
    7.5075   -1.1593    2.6159 H   0  0  0  0  0  0  0  0  0  0  0  0
    3.6454   -0.5381    1.9522 H   0  0  0  0  0  0  0  0  0  0  0  0
   -4.8755    0.1371   -3.4253 H   0  0  0  0  0  0  0  0  0  0  0  0
   -7.4895    1.2855   -3.3477 H   0  0  0  0  0  0  0  0  0  0  0  0
   -9.0997    2.0296   -0.9035 H   0  0  0  0  0  0  0  0  0  0  0  0
  1  2  1  0
  2  3  1  0
  3  4  1  0
  4  5  1  0
  5  6  1  0
  6  7  1  0
  6  8  1  0
  8  9  1  0
  9 10  1  0
 10 11  2  0
 11 12  1  0
 12 13  2  0
 13 14  1  0
 12 15  1  0
 15 16  1  0
 16 17  2  0
 17 18  1  0
 18 19  1  0
 19 20  2  0
 19 21  2  0
 19 22  1  0
 16 23  1  0
 23 24  1  0
 24 25  1  0
 25 26  1  0
 26 27  1  0
 27 28  1  0
 28 29  1  0
 28 30  1  0
 30 31  1  0
 27 32  1  0
 26 33  1  0
 25 34  1  0
  5 35  1  0
  4 36  1  0
  3 37  1  0
  7  2  1  0
 14  9  2  0
 29 24  1  0
  1 39  1  0
  1 40  1  0
  1 41  1  0
  2 42  1  1
  3 43  1  6
  4 44  1  1
  5 45  1  6
  6 46  1  1
 10 47  1  0
 11 48  1  0
 13 49  1  0
 14 50  1  0
 15 51  1  0
 15 52  1  0
 24 53  1  1
 25 54  1  6
 26 55  1  1
 27 56  1  6
 28 57  1  1
 30 58  1  0
 30 59  1  0
 31 60  1  0
 32 61  1  0
 33 62  1  0
 34 63  1  0
 35 64  1  0
 36 65  1  0
 37 66  1  0
M  CHG  2  22  -1  38   1
M  END
$$$$
benzyl isothiocyanate
     RDKit          3D

 17 17  0  0  0  0  0  0  0  0999 V2000
   -2.3227    0.7574    0.3871 C   0  0  0  0  0  0  0  0  0  0  0  0
   -1.4376    1.4044   -0.4735 C   0  0  0  0  0  0  0  0  0  0  0  0
   -0.1905    0.8407   -0.7490 C   0  0  0  0  0  0  0  0  0  0  0  0
    0.1806   -0.3784   -0.1654 C   0  0  0  0  0  0  0  0  0  0  0  0
   -0.7163   -1.0189    0.7016 C   0  0  0  0  0  0  0  0  0  0  0  0
   -1.9623   -0.4534    0.9751 C   0  0  0  0  0  0  0  0  0  0  0  0
    1.5322   -0.9916   -0.4494 C   0  0  0  0  0  0  0  0  0  0  0  0
    2.3920   -1.0721    0.7432 N   0  0  0  0  0  0  0  0  0  0  0  0
    2.9405   -0.0702    1.0135 C   0  0  0  0  0  0  0  0  0  0  0  0
    3.7939    1.4594    1.4212 S   0  0  0  0  0  0  0  0  0  0  0  0
   -3.2926    1.1983    0.6017 H   0  0  0  0  0  0  0  0  0  0  0  0
   -1.7186    2.3505   -0.9291 H   0  0  0  0  0  0  0  0  0  0  0  0
    0.4874    1.3628   -1.4204 H   0  0  0  0  0  0  0  0  0  0  0  0
   -0.4426   -1.9613    1.1719 H   0  0  0  0  0  0  0  0  0  0  0  0
   -2.6504   -0.9565    1.6495 H   0  0  0  0  0  0  0  0  0  0  0  0
    2.0370   -0.4601   -1.2691 H   0  0  0  0  0  0  0  0  0  0  0  0
    1.3702   -2.0111   -0.8223 H   0  0  0  0  0  0  0  0  0  0  0  0
  1  2  2  0
  2  3  1  0
  3  4  2  0
  4  5  1  0
  5  6  2  0
  4  7  1  0
  7  8  1  0
  8  9  2  0
  9 10  2  0
  6  1  1  0
  1 11  1  0
  2 12  1  0
  3 13  1  0
  5 14  1  0
  6 15  1  0
  7 16  1  0
  7 17  1  0
M  END
$$$$
4-hydroxybenzyl isothiocyanate
     RDKit          3D

 18 18  0  0  0  0  0  0  0  0999 V2000
    0.0186   -0.0909   -1.0956 C   0  0  0  0  0  0  0  0  0  0  0  0
   -1.3117   -0.0888   -1.5222 C   0  0  0  0  0  0  0  0  0  0  0  0
   -2.3307   -0.0036   -0.5802 C   0  0  0  0  0  0  0  0  0  0  0  0
   -2.0408    0.0786    0.7760 C   0  0  0  0  0  0  0  0  0  0  0  0
   -0.7111    0.0778    1.2020 C   0  0  0  0  0  0  0  0  0  0  0  0
    0.3336   -0.0022    0.2698 C   0  0  0  0  0  0  0  0  0  0  0  0
    1.7743   -0.0283    0.7269 C   0  0  0  0  0  0  0  0  0  0  0  0
    2.5775    0.9992    0.0461 N   0  0  0  0  0  0  0  0  0  0  0  0
    3.6929    1.0480    0.4060 C   0  0  0  0  0  0  0  0  0  0  0  0
    5.4031    1.1183    0.9560 S   0  0  0  0  0  0  0  0  0  0  0  0
   -3.6428    0.0015   -0.9509 O   0  0  0  0  0  0  0  0  0  0  0  0
    0.8146   -0.1553   -1.8348 H   0  0  0  0  0  0  0  0  0  0  0  0
   -1.5283   -0.1530   -2.5836 H   0  0  0  0  0  0  0  0  0  0  0  0
   -2.8478    0.1443    1.5001 H   0  0  0  0  0  0  0  0  0  0  0  0
   -0.5008    0.1428    2.2670 H   0  0  0  0  0  0  0  0  0  0  0  0
    2.1742   -1.0314    0.5226 H   0  0  0  0  0  0  0  0  0  0  0  0
    1.8142    0.1241    1.8147 H   0  0  0  0  0  0  0  0  0  0  0  0
   -3.6889   -0.0411   -1.9199 H   0  0  0  0  0  0  0  0  0  0  0  0
  1  2  2  0
  2  3  1  0
  3  4  2  0
  4  5  1  0
  5  6  2  0
  6  7  1  0
  7  8  1  0
  8  9  2  0
  9 10  2  0
  3 11  1  0
  6  1  1  0
  1 12  1  0
  2 13  1  0
  4 14  1  0
  5 15  1  0
  7 16  1  0
  7 17  1  0
 11 18  1  0
M  END
$$$$
sinigrin
     RDKit          3D

 39 39  0  0  0  0  0  0  0  0999 V2000
    2.9853    3.3390    3.1441 C   0  0  0  0  0  0  0  0  0  0  0  0
    3.0031    2.0452    2.7980 C   0  0  0  0  0  0  0  0  0  0  0  0
    1.7757    1.2432    2.4681 C   0  0  0  0  0  0  0  0  0  0  0  0
    1.8082    0.8445    1.0027 C   0  0  0  0  0  0  0  0  0  0  0  0
    2.4693   -0.1418    0.4748 N   0  0  0  0  0  0  0  0  0  0  0  0
    3.0616   -0.9518    1.4753 O   0  0  0  0  0  0  0  0  0  0  0  0
    2.8922   -2.5533    1.1342 S   0  0  0  0  0  0  0  0  0  0  0  0
    3.7105   -3.3203    2.0432 O   0  0  0  0  0  0  0  0  0  0  0  0
    1.4716   -2.8120    0.9655 O   0  0  0  0  0  0  0  0  0  0  0  0
    3.5519   -2.6339   -0.3371 O   0  0  0  0  0  0  0  0  0  0  0  0
    0.8155    1.8055   -0.0811 S   0  0  0  0  0  0  0  0  0  0  0  0
   -0.2252    0.4496   -0.7601 C   0  0  1  0  0  0  0  0  0  0  0  0
   -1.1553   -0.1608    0.3161 C   0  0  1  0  0  0  0  0  0  0  0  0
   -2.0763   -1.2018   -0.3297 C   0  0  2  0  0  0  0  0  0  0  0  0
   -2.8097   -0.6332   -1.5453 C   0  0  1  0  0  0  0  0  0  0  0  0
   -1.8032    0.0031   -2.5121 C   0  0  2  0  0  0  0  0  0  0  0  0
   -0.9987    0.9872   -1.8387 O   0  0  0  0  0  0  0  0  0  0  0  0
   -2.5081    0.7178   -3.6725 C   0  0  0  0  0  0  0  0  0  0  0  0
   -3.2108    1.8671   -3.1964 O   0  0  0  0  0  0  0  0  0  0  0  0
   -3.5148   -1.7013   -2.1850 O   0  0  0  0  0  0  0  0  0  0  0  0
   -3.0460   -1.6679    0.6224 O   0  0  0  0  0  0  0  0  0  0  0  0
   -0.4544   -0.7958    1.3994 O   0  0  0  0  0  0  0  0  0  0  0  0
    2.0605    3.9057    3.2035 H   0  0  0  0  0  0  0  0  0  0  0  0
    3.9068    3.8651    3.3769 H   0  0  0  0  0  0  0  0  0  0  0  0
    3.9595    1.5265    2.7584 H   0  0  0  0  0  0  0  0  0  0  0  0
    0.8626    1.8088    2.6868 H   0  0  0  0  0  0  0  0  0  0  0  0
    1.7455    0.3470    3.0965 H   0  0  0  0  0  0  0  0  0  0  0  0
    3.4390   -1.7477   -0.7453 H   0  0  0  0  0  0  0  0  0  0  0  0
    0.4478   -0.3146   -1.1659 H   0  0  0  0  0  0  0  0  0  0  0  0
   -1.7787    0.6234    0.7642 H   0  0  0  0  0  0  0  0  0  0  0  0
   -1.5011   -2.0906   -0.6189 H   0  0  0  0  0  0  0  0  0  0  0  0
   -3.5524    0.1015   -1.2114 H   0  0  0  0  0  0  0  0  0  0  0  0
   -1.1499   -0.7686   -2.9399 H   0  0  0  0  0  0  0  0  0  0  0  0
   -3.2138    0.0625   -4.1910 H   0  0  0  0  0  0  0  0  0  0  0  0
   -1.7702    1.0745   -4.3989 H   0  0  0  0  0  0  0  0  0  0  0  0
   -2.5544    2.3822   -2.6888 H   0  0  0  0  0  0  0  0  0  0  0  0
   -4.0637   -2.1040   -1.4814 H   0  0  0  0  0  0  0  0  0  0  0  0
   -2.5686   -1.7905    1.4669 H   0  0  0  0  0  0  0  0  0  0  0  0
   -0.0113   -1.6094    1.0691 H   0  0  0  0  0  0  0  0  0  0  0  0
  1  2  2  0
  2  3  1  0
  3  4  1  0
  4  5  2  0
  5  6  1  0
  6  7  1  0
  7  8  2  0
  7  9  2  0
  7 10  1  0
  4 11  1  0
 11 12  1  0
 12 13  1  0
 13 14  1  0
 14 15  1  0
 15 16  1  0
 16 17  1  0
 16 18  1  0
 18 19  1  0
 15 20  1  0
 14 21  1  0
 13 22  1  0
 17 12  1  0
  1 23  1  0
  1 24  1  0
  2 25  1  0
  3 26  1  0
  3 27  1  0
 10 28  1  0
 12 29  1  6
 13 30  1  1
 14 31  1  6
 15 32  1  1
 16 33  1  6
 18 34  1  0
 18 35  1  0
 19 36  1  0
 20 37  1  0
 21 38  1  0
 22 39  1  0
M  END
$$$$
niazimicin
     RDKit          3D

 47 48  0  0  0  0  0  0  0  0999 V2000
   -8.0345    1.3014   -1.0241 C   0  0  0  0  0  0  0  0  0  0  0  0
   -7.4080    1.2384    0.3559 C   0  0  0  0  0  0  0  0  0  0  0  0
   -6.0070    0.9309    0.1889 O   0  0  0  0  0  0  0  0  0  0  0  0
   -5.1622    0.8048    1.2418 C   0  0  0  0  0  0  0  0  0  0  0  0
   -5.5941    0.9783    2.8350 S   0  0  0  0  0  0  0  0  0  0  0  0
   -3.8814    0.5132    0.8825 N   0  0  0  0  0  0  0  0  0  0  0  0
   -3.4365    0.3292   -0.4796 C   0  0  0  0  0  0  0  0  0  0  0  0
   -1.9609    0.0432   -0.5288 C   0  0  0  0  0  0  0  0  0  0  0  0
   -1.0336    1.0924   -0.5758 C   0  0  0  0  0  0  0  0  0  0  0  0
    0.3409    0.8312   -0.5920 C   0  0  0  0  0  0  0  0  0  0  0  0
    0.8052   -0.4828   -0.5597 C   0  0  0  0  0  0  0  0  0  0  0  0
   -0.1152   -1.5301   -0.4872 C   0  0  0  0  0  0  0  0  0  0  0  0
   -1.4880   -1.2730   -0.4717 C   0  0  0  0  0  0  0  0  0  0  0  0
    2.1162   -0.8701   -0.5530 O   0  0  0  0  0  0  0  0  0  0  0  0
    3.0930    0.0874   -0.9750 C   0  0  0  0  0  0  0  0  0  0  0  0
    4.3762   -0.6485   -1.4139 C   0  0  0  0  0  0  0  0  0  0  0  0
    5.0362   -1.3049   -0.2015 C   0  0  0  0  0  0  0  0  0  0  0  0
    5.3212   -0.2513    0.8720 C   0  0  0  0  0  0  0  0  0  0  0  0
    4.0600    0.5605    1.2117 C   0  0  0  0  0  0  0  0  0  0  0  0
    3.4074    1.0615    0.0339 O   0  0  0  0  0  0  0  0  0  0  0  0
    3.0909   -0.1561    2.1520 C   0  0  0  0  0  0  0  0  0  0  0  0
    5.8901   -0.8671    2.0275 O   0  0  0  0  0  0  0  0  0  0  0  0
    6.2701   -1.9380   -0.5988 O   0  0  0  0  0  0  0  0  0  0  0  0
    4.1331   -1.6229   -2.4354 O   0  0  0  0  0  0  0  0  0  0  0  0
   -9.1013    1.5325   -0.9582 H   0  0  0  0  0  0  0  0  0  0  0  0
   -7.9104    0.3476   -1.5475 H   0  0  0  0  0  0  0  0  0  0  0  0
   -7.5437    2.0659   -1.6355 H   0  0  0  0  0  0  0  0  0  0  0  0
   -7.5176    2.2086    0.8517 H   0  0  0  0  0  0  0  0  0  0  0  0
   -7.8928    0.4504    0.9417 H   0  0  0  0  0  0  0  0  0  0  0  0
   -3.2140    0.3946    1.6348 H   0  0  0  0  0  0  0  0  0  0  0  0
   -4.0078   -0.4930   -0.9265 H   0  0  0  0  0  0  0  0  0  0  0  0
   -3.6754    1.2319   -1.0544 H   0  0  0  0  0  0  0  0  0  0  0  0
   -1.3763    2.1253   -0.5910 H   0  0  0  0  0  0  0  0  0  0  0  0
    1.0218    1.6766   -0.6078 H   0  0  0  0  0  0  0  0  0  0  0  0
    0.2398   -2.5571   -0.4450 H   0  0  0  0  0  0  0  0  0  0  0  0
   -2.1839   -2.1070   -0.4116 H   0  0  0  0  0  0  0  0  0  0  0  0
    2.7158    0.6193   -1.8583 H   0  0  0  0  0  0  0  0  0  0  0  0
    5.0776    0.0780   -1.8434 H   0  0  0  0  0  0  0  0  0  0  0  0
    4.4159   -2.1160    0.1958 H   0  0  0  0  0  0  0  0  0  0  0  0
    6.0837    0.4356    0.4826 H   0  0  0  0  0  0  0  0  0  0  0  0
    4.3891    1.4526    1.7599 H   0  0  0  0  0  0  0  0  0  0  0  0
    2.1585    0.4098    2.2485 H   0  0  0  0  0  0  0  0  0  0  0  0
    3.5286   -0.2686    3.1494 H   0  0  0  0  0  0  0  0  0  0  0  0
    2.8326   -1.1573    1.7971 H   0  0  0  0  0  0  0  0  0  0  0  0
    6.4681   -1.5870    1.7070 H   0  0  0  0  0  0  0  0  0  0  0  0
    6.8577   -1.2558   -0.9727 H   0  0  0  0  0  0  0  0  0  0  0  0
    4.8153   -2.3146   -2.3333 H   0  0  0  0  0  0  0  0  0  0  0  0
  1  2  1  0
  2  3  1  0
  3  4  1  0
  4  5  2  0
  4  6  1  0
  6  7  1  0
  7  8  1  0
  8  9  1  0
  9 10  2  0
 10 11  1  0
 11 12  2  0
 12 13  1  0
 11 14  1  0
 14 15  1  0
 15 16  1  0
 16 17  1  0
 17 18  1  0
 18 19  1  0
 19 20  1  0
 19 21  1  0
 18 22  1  0
 17 23  1  0
 16 24  1  0
 13  8  2  0
 20 15  1  0
  1 25  1  0
  1 26  1  0
  1 27  1  0
  2 28  1  0
  2 29  1  0
  6 30  1  0
  7 31  1  0
  7 32  1  0
  9 33  1  0
 10 34  1  0
 12 35  1  0
 13 36  1  0
 15 37  1  0
 16 38  1  0
 17 39  1  0
 18 40  1  0
 19 41  1  0
 21 42  1  0
 21 43  1  0
 21 44  1  0
 22 45  1  0
 23 46  1  0
 24 47  1  0
M  END
$$$$
niazirin
     RDKit          3D

 37 38  0  0  0  0  0  0  0  0999 V2000
   -2.6471   -1.1344    1.1911 C   0  0  0  0  0  0  0  0  0  0  0  0
   -2.6903   -0.9085   -0.3171 C   0  0  1  0  0  0  0  0  0  0  0  0
   -3.4450    0.3864   -0.6737 C   0  0  1  0  0  0  0  0  0  0  0  0
   -2.9903    0.8702   -2.0494 C   0  0  2  0  0  0  0  0  0  0  0  0
   -1.4822    1.1528   -2.0530 C   0  0  2  0  0  0  0  0  0  0  0  0
   -0.7398    0.3143   -0.9834 C   0  0  1  0  0  0  0  0  0  0  0  0
   -1.3566   -0.9641   -0.8528 O   0  0  0  0  0  0  0  0  0  0  0  0
    0.6195    0.2195   -1.4350 O   0  0  0  0  0  0  0  0  0  0  0  0
    1.5744   -0.1484   -0.5309 C   0  0  0  0  0  0  0  0  0  0  0  0
    1.3463   -0.7247    0.7164 C   0  0  0  0  0  0  0  0  0  0  0  0
    2.4215   -1.0552    1.5490 C   0  0  0  0  0  0  0  0  0  0  0  0
    3.7419   -0.8246    1.1390 C   0  0  0  0  0  0  0  0  0  0  0  0
    3.9659   -0.2495   -0.1179 C   0  0  0  0  0  0  0  0  0  0  0  0
    2.8888    0.0774   -0.9454 C   0  0  0  0  0  0  0  0  0  0  0  0
    4.8998   -1.1658    2.0465 C   0  0  0  0  0  0  0  0  0  0  0  0
    5.2622   -0.0569    2.9412 C   0  0  0  0  0  0  0  0  0  0  0  0
    5.5628    0.8072    3.6563 N   0  0  0  0  0  0  0  0  0  0  0  0
   -1.2709    2.5631   -1.8202 O   0  0  0  0  0  0  0  0  0  0  0  0
   -3.7389    2.0435   -2.4072 O   0  0  0  0  0  0  0  0  0  0  0  0
   -4.8564    0.1614   -0.6724 O   0  0  0  0  0  0  0  0  0  0  0  0
   -2.1008   -0.3308    1.6962 H   0  0  0  0  0  0  0  0  0  0  0  0
   -3.6548   -1.1884    1.6141 H   0  0  0  0  0  0  0  0  0  0  0  0
   -2.1204   -2.0666    1.4218 H   0  0  0  0  0  0  0  0  0  0  0  0
   -3.2228   -1.7631   -0.7525 H   0  0  0  0  0  0  0  0  0  0  0  0
   -3.2563    1.1723    0.0683 H   0  0  0  0  0  0  0  0  0  0  0  0
   -3.2330    0.1022   -2.7938 H   0  0  0  0  0  0  0  0  0  0  0  0
   -1.0894    0.9504   -3.0568 H   0  0  0  0  0  0  0  0  0  0  0  0
   -0.7579    0.8532   -0.0255 H   0  0  0  0  0  0  0  0  0  0  0  0
    0.3449   -0.9482    1.0672 H   0  0  0  0  0  0  0  0  0  0  0  0
    2.2142   -1.5005    2.5207 H   0  0  0  0  0  0  0  0  0  0  0  0
    4.9773   -0.0504   -0.4667 H   0  0  0  0  0  0  0  0  0  0  0  0
    3.0788    0.5168   -1.9220 H   0  0  0  0  0  0  0  0  0  0  0  0
    5.7667   -1.4517    1.4381 H   0  0  0  0  0  0  0  0  0  0  0  0
    4.6474   -2.0545    2.6380 H   0  0  0  0  0  0  0  0  0  0  0  0
   -0.3059    2.7064   -1.8835 H   0  0  0  0  0  0  0  0  0  0  0  0
   -3.1193    2.7930   -2.2693 H   0  0  0  0  0  0  0  0  0  0  0  0
   -5.2343    0.8962   -1.1990 H   0  0  0  0  0  0  0  0  0  0  0  0
  1  2  1  0
  2  3  1  0
  3  4  1  0
  4  5  1  0
  5  6  1  0
  6  7  1  0
  6  8  1  0
  8  9  1  0
  9 10  1  0
 10 11  2  0
 11 12  1  0
 12 13  2  0
 13 14  1  0
 12 15  1  0
 15 16  1  0
 16 17  3  0
  5 18  1  0
  4 19  1  0
  3 20  1  0
  7  2  1  0
 14  9  2  0
  1 21  1  0
  1 22  1  0
  1 23  1  0
  2 24  1  6
  3 25  1  1
  4 26  1  6
  5 27  1  6
  6 28  1  1
 10 29  1  0
 11 30  1  0
 13 31  1  0
 14 32  1  0
 15 33  1  0
 15 34  1  0
 18 35  1  0
 19 36  1  0
 20 37  1  0
M  END
$$$$
moringine
     RDKit          3D

 17 17  0  0  0  0  0  0  0  0999 V2000
    2.3413   -0.3447    0.2498 C   0  0  0  0  0  0  0  0  0  0  0  0
    1.6030   -1.1787   -0.5878 C   0  0  0  0  0  0  0  0  0  0  0  0
    0.2611   -0.8967   -0.8491 C   0  0  0  0  0  0  0  0  0  0  0  0
   -0.3535    0.2278   -0.2795 C   0  0  0  0  0  0  0  0  0  0  0  0
    0.3970    1.0544    0.5690 C   0  0  0  0  0  0  0  0  0  0  0  0
    1.7388    0.7705    0.8291 C   0  0  0  0  0  0  0  0  0  0  0  0
   -1.8089    0.5182   -0.5396 C   0  0  0  0  0  0  0  0  0  0  0  0
   -2.6627   -0.1374    0.4443 N   0  0  0  0  0  0  0  0  0  0  0  0
    3.3860   -0.5650    0.4527 H   0  0  0  0  0  0  0  0  0  0  0  0
    2.0721   -2.0502   -1.0371 H   0  0  0  0  0  0  0  0  0  0  0  0
   -0.3043   -1.5584   -1.5016 H   0  0  0  0  0  0  0  0  0  0  0  0
   -0.0615    1.9259    1.0311 H   0  0  0  0  0  0  0  0  0  0  0  0
    2.3138    1.4192    1.4847 H   0  0  0  0  0  0  0  0  0  0  0  0
   -1.9865    1.5996   -0.5170 H   0  0  0  0  0  0  0  0  0  0  0  0
   -2.0852    0.1838   -1.5461 H   0  0  0  0  0  0  0  0  0  0  0  0
   -2.4708   -1.1383    0.4231 H   0  0  0  0  0  0  0  0  0  0  0  0
   -2.3797    0.1699    1.3741 H   0  0  0  0  0  0  0  0  0  0  0  0
  1  2  2  0
  2  3  1  0
  3  4  2  0
  4  5  1  0
  5  6  2  0
  4  7  1  0
  7  8  1  0
  6  1  1  0
  1  9  1  0
  2 10  1  0
  3 11  1  0
  5 12  1  0
  6 13  1  0
  7 14  1  0
  7 15  1  0
  8 16  1  0
  8 17  1  0
M  END
$$$$
quercetin
     RDKit          3D

 32 34  0  0  0  0  0  0  0  0999 V2000
   -2.2512    0.1897   -2.0628 C   0  0  0  0  0  0  0  0  0  0  0  0
   -3.5945    0.5521   -2.2064 C   0  0  0  0  0  0  0  0  0  0  0  0
   -4.3551    0.7943   -1.0739 C   0  0  0  0  0  0  0  0  0  0  0  0
   -3.7815    0.7161    0.1904 C   0  0  0  0  0  0  0  0  0  0  0  0
   -2.4524    0.3408    0.3429 C   0  0  0  0  0  0  0  0  0  0  0  0
   -1.6680    0.0633   -0.7886 C   0  0  0  0  0  0  0  0  0  0  0  0
   -0.2454   -0.3025   -0.6213 C   0  0  0  0  0  0  0  0  0  0  0  0
    0.3263   -1.3443   -1.2528 C   0  0  0  0  0  0  0  0  0  0  0  0
    1.7580   -1.6259   -0.9990 C   0  0  0  0  0  0  0  0  0  0  0  0
    2.3155   -2.5698   -1.5546 O   0  0  0  0  0  0  0  0  0  0  0  0
    2.4670   -0.7431   -0.0708 C   0  0  0  0  0  0  0  0  0  0  0  0
    3.8205   -0.9238    0.2279 C   0  0  0  0  0  0  0  0  0  0  0  0
    4.4573   -0.0620    1.1164 C   0  0  0  0  0  0  0  0  0  0  0  0
    3.7364    0.9755    1.7016 C   0  0  0  0  0  0  0  0  0  0  0  0
    2.3873    1.1646    1.4118 C   0  0  0  0  0  0  0  0  0  0  0  0
    1.7541    0.2973    0.5197 C   0  0  0  0  0  0  0  0  0  0  0  0
    0.4247    0.5271    0.2700 O   0  0  0  0  0  0  0  0  0  0  0  0
    4.3971    1.7972    2.5661 O   0  0  0  0  0  0  0  0  0  0  0  0
    4.5777   -1.9252   -0.3162 O   0  0  0  0  0  0  0  0  0  0  0  0
   -0.3383   -2.1918   -2.1197 O   0  0  0  0  0  0  0  0  0  0  0  0
   -4.5070    1.0381    1.3015 O   0  0  0  0  0  0  0  0  0  0  0  0
   -5.6808    1.0837   -1.2155 O   0  0  0  0  0  0  0  0  0  0  0  0
   -1.6637   -0.0021   -2.9585 H   0  0  0  0  0  0  0  0  0  0  0  0
   -4.0400    0.6255   -3.1939 H   0  0  0  0  0  0  0  0  0  0  0  0
   -2.0308    0.2761    1.3425 H   0  0  0  0  0  0  0  0  0  0  0  0
    5.5093   -0.1982    1.3516 H   0  0  0  0  0  0  0  0  0  0  0  0
    1.8218    1.9724    1.8661 H   0  0  0  0  0  0  0  0  0  0  0  0
    3.7843    2.4735    2.8994 H   0  0  0  0  0  0  0  0  0  0  0  0
    4.0099   -2.4568   -0.9165 H   0  0  0  0  0  0  0  0  0  0  0  0
    0.3269   -2.8586   -2.3918 H   0  0  0  0  0  0  0  0  0  0  0  0
   -5.1255    1.7395    1.0252 H   0  0  0  0  0  0  0  0  0  0  0  0
   -6.1399    0.5771   -0.5201 H   0  0  0  0  0  0  0  0  0  0  0  0
  1  2  2  0
  2  3  1  0
  3  4  2  0
  4  5  1  0
  5  6  2  0
  6  7  1  0
  7  8  2  0
  8  9  1  0
  9 10  2  0
  9 11  1  0
 11 12  2  0
 12 13  1  0
 13 14  2  0
 14 15  1  0
 15 16  2  0
 16 17  1  0
 14 18  1  0
 12 19  1  0
  8 20  1  0
  4 21  1  0
  3 22  1  0
  6  1  1  0
 17  7  1  0
 16 11  1  0
  1 23  1  0
  2 24  1  0
  5 25  1  0
 13 26  1  0
 15 27  1  0
 18 28  1  0
 19 29  1  0
 20 30  1  0
 21 31  1  0
 22 32  1  0
M  END
$$$$
kaempferol
     RDKit          3D

 31 33  0  0  0  0  0  0  0  0999 V2000
    2.4243    1.2699    0.6282 C   0  0  0  0  0  0  0  0  0  0  0  0
    3.7913    1.4549    0.8495 C   0  0  0  0  0  0  0  0  0  0  0  0
    4.6921    0.4793    0.4437 C   0  0  0  0  0  0  0  0  0  0  0  0
    4.2491   -0.6823   -0.1779 C   0  0  0  0  0  0  0  0  0  0  0  0
    2.8800   -0.8657   -0.3974 C   0  0  0  0  0  0  0  0  0  0  0  0
    1.9498    0.1105   -0.0063 C   0  0  0  0  0  0  0  0  0  0  0  0
    0.4962   -0.0742   -0.2068 C   0  0  0  0  0  0  0  0  0  0  0  0
   -0.0426   -0.4875   -1.3690 C   0  0  0  0  0  0  0  0  0  0  0  0
   -1.5149   -0.6222   -1.4569 C   0  0  0  0  0  0  0  0  0  0  0  0
   -2.0469   -0.9940   -2.5008 O   0  0  0  0  0  0  0  0  0  0  0  0
   -2.2975   -0.2968   -0.2637 C   0  0  0  0  0  0  0  0  0  0  0  0
   -3.6925   -0.3984   -0.2478 C   0  0  0  0  0  0  0  0  0  0  0  0
   -4.4051   -0.0798    0.9057 C   0  0  0  0  0  0  0  0  0  0  0  0
   -3.7109    0.3400    2.0375 C   0  0  0  0  0  0  0  0  0  0  0  0
   -2.3225    0.4445    2.0311 C   0  0  0  0  0  0  0  0  0  0  0  0
   -1.6145    0.1240    0.8734 C   0  0  0  0  0  0  0  0  0  0  0  0
   -0.2495    0.2464    0.9220 O   0  0  0  0  0  0  0  0  0  0  0  0
   -4.3641    0.6632    3.1897 O   0  0  0  0  0  0  0  0  0  0  0  0
   -4.4240   -0.8046   -1.3310 O   0  0  0  0  0  0  0  0  0  0  0  0
    0.6849   -0.7831   -2.5071 O   0  0  0  0  0  0  0  0  0  0  0  0
    6.0166    0.7000    0.6777 O   0  0  0  0  0  0  0  0  0  0  0  0
    1.7322    2.0442    0.9521 H   0  0  0  0  0  0  0  0  0  0  0  0
    4.1495    2.3572    1.3368 H   0  0  0  0  0  0  0  0  0  0  0  0
    4.9440   -1.4526   -0.4963 H   0  0  0  0  0  0  0  0  0  0  0  0
    2.5455   -1.7821   -0.8789 H   0  0  0  0  0  0  0  0  0  0  0  0
   -5.4874   -0.1637    0.9024 H   0  0  0  0  0  0  0  0  0  0  0  0
   -1.7984    0.7735    2.9244 H   0  0  0  0  0  0  0  0  0  0  0  0
   -5.3197    0.5449    3.0546 H   0  0  0  0  0  0  0  0  0  0  0  0
   -3.8055   -0.9928   -2.0719 H   0  0  0  0  0  0  0  0  0  0  0  0
    0.0192   -1.0187   -3.1869 H   0  0  0  0  0  0  0  0  0  0  0  0
    6.5215   -0.0541    0.3319 H   0  0  0  0  0  0  0  0  0  0  0  0
  1  2  2  0
  2  3  1  0
  3  4  2  0
  4  5  1  0
  5  6  2  0
  6  7  1  0
  7  8  2  0
  8  9  1  0
  9 10  2  0
  9 11  1  0
 11 12  2  0
 12 13  1  0
 13 14  2  0
 14 15  1  0
 15 16  2  0
 16 17  1  0
 14 18  1  0
 12 19  1  0
  8 20  1  0
  3 21  1  0
  6  1  1  0
 17  7  1  0
 16 11  1  0
  1 22  1  0
  2 23  1  0
  4 24  1  0
  5 25  1  0
 13 26  1  0
 15 27  1  0
 18 28  1  0
 19 29  1  0
 20 30  1  0
 21 31  1  0
M  END
$$$$
rutin
     RDKit          3D

 73 77  0  0  0  0  0  0  0  0999 V2000
    1.5393    2.3433    2.3176 C   0  0  0  0  0  0  0  0  0  0  0  0
    2.2635    1.5033    1.2705 C   0  0  1  0  0  0  0  0  0  0  0  0
    3.0584    2.3847    0.2994 C   0  0  1  0  0  0  0  0  0  0  0  0
    3.8952    1.5200   -0.6503 C   0  0  2  0  0  0  0  0  0  0  0  0
    4.7345    0.5027    0.1222 C   0  0  2  0  0  0  0  0  0  0  0  0
    3.8288   -0.2897    1.0895 C   0  0  1  0  0  0  0  0  0  0  0  0
    3.1217    0.5906    1.9675 O   0  0  0  0  0  0  0  0  0  0  0  0
    2.9336   -1.0973    0.3352 O   0  0  0  0  0  0  0  0  0  0  0  0
    2.2801   -2.0865    1.1247 C   0  0  0  0  0  0  0  0  0  0  0  0
    1.2121   -2.8021    0.2832 C   0  0  2  0  0  0  0  0  0  0  0  0
    1.8011   -3.4466   -0.9949 C   0  0  2  0  0  0  0  0  0  0  0  0
    1.8350   -2.5262   -2.2282 C   0  0  1  0  0  0  0  0  0  0  0  0
    0.8138   -1.3857   -2.1584 C   0  0  2  0  0  0  0  0  0  0  0  0
   -0.3610   -1.8002   -1.2597 C   0  0  1  0  0  0  0  0  0  0  0  0
    0.1286   -1.8775    0.0800 O   0  0  0  0  0  0  0  0  0  0  0  0
   -1.3683   -0.7778   -1.3968 O   0  0  0  0  0  0  0  0  0  0  0  0
   -2.3449   -0.7360   -0.4110 C   0  0  0  0  0  0  0  0  0  0  0  0
   -2.9535    0.4236   -0.0892 C   0  0  0  0  0  0  0  0  0  0  0  0
   -3.9284    0.5720    0.8833 O   0  0  0  0  0  0  0  0  0  0  0  0
   -4.2417   -0.5047    1.6678 C   0  0  0  0  0  0  0  0  0  0  0  0
   -5.1197   -0.2797    2.7302 C   0  0  0  0  0  0  0  0  0  0  0  0
   -5.4811   -1.3448    3.5507 C   0  0  0  0  0  0  0  0  0  0  0  0
   -4.9862   -2.6249    3.3208 C   0  0  0  0  0  0  0  0  0  0  0  0
   -4.1177   -2.8418    2.2545 C   0  0  0  0  0  0  0  0  0  0  0  0
   -3.7370   -1.7775    1.4289 C   0  0  0  0  0  0  0  0  0  0  0  0
   -2.8217   -1.9650    0.2960 C   0  0  0  0  0  0  0  0  0  0  0  0
   -2.5123   -3.1083   -0.0303 O   0  0  0  0  0  0  0  0  0  0  0  0
   -3.6731   -4.1235    2.0693 O   0  0  0  0  0  0  0  0  0  0  0  0
   -6.3317   -1.1728    4.6021 O   0  0  0  0  0  0  0  0  0  0  0  0
   -2.6827    1.6874   -0.8011 C   0  0  0  0  0  0  0  0  0  0  0  0
   -1.4223    2.3049   -0.7664 C   0  0  0  0  0  0  0  0  0  0  0  0
   -1.2381    3.5128   -1.4318 C   0  0  0  0  0  0  0  0  0  0  0  0
   -2.2883    4.1040   -2.1312 C   0  0  0  0  0  0  0  0  0  0  0  0
   -3.5370    3.5086   -2.1784 C   0  0  0  0  0  0  0  0  0  0  0  0
   -3.7348    2.3005   -1.5085 C   0  0  0  0  0  0  0  0  0  0  0  0
   -2.0900    5.2901   -2.7784 O   0  0  0  0  0  0  0  0  0  0  0  0
   -0.0446    4.1792   -1.4316 O   0  0  0  0  0  0  0  0  0  0  0  0
    0.4111   -1.0376   -3.4926 O   0  0  0  0  0  0  0  0  0  0  0  0
    3.1501   -1.9873   -2.4403 O   0  0  0  0  0  0  0  0  0  0  0  0
    0.9613   -4.5687   -1.3459 O   0  0  0  0  0  0  0  0  0  0  0  0
    5.7731    1.2285    0.8101 O   0  0  0  0  0  0  0  0  0  0  0  0
    4.7428    2.3966   -1.4158 O   0  0  0  0  0  0  0  0  0  0  0  0
    2.1860    3.2103   -0.4898 O   0  0  0  0  0  0  0  0  0  0  0  0
    0.9848    1.6960    3.0058 H   0  0  0  0  0  0  0  0  0  0  0  0
    0.8354    3.0433    1.8579 H   0  0  0  0  0  0  0  0  0  0  0  0
    2.2527    2.9101    2.9259 H   0  0  0  0  0  0  0  0  0  0  0  0
    1.4980    0.9373    0.7249 H   0  0  0  0  0  0  0  0  0  0  0  0
    3.7189    3.0618    0.8557 H   0  0  0  0  0  0  0  0  0  0  0  0
    3.2390    1.0168   -1.3692 H   0  0  0  0  0  0  0  0  0  0  0  0
    5.2310   -0.1696   -0.5866 H   0  0  0  0  0  0  0  0  0  0  0  0
    4.4645   -0.9259    1.7170 H   0  0  0  0  0  0  0  0  0  0  0  0
    1.8022   -1.6107    1.9889 H   0  0  0  0  0  0  0  0  0  0  0  0
    3.0242   -2.8085    1.4795 H   0  0  0  0  0  0  0  0  0  0  0  0
    0.7908   -3.5958    0.9129 H   0  0  0  0  0  0  0  0  0  0  0  0
    2.7950   -3.8631   -0.7950 H   0  0  0  0  0  0  0  0  0  0  0  0
    1.6313   -3.1315   -3.1216 H   0  0  0  0  0  0  0  0  0  0  0  0
    1.2848   -0.4837   -1.7496 H   0  0  0  0  0  0  0  0  0  0  0  0
   -0.7929   -2.7463   -1.6036 H   0  0  0  0  0  0  0  0  0  0  0  0
   -5.5069    0.7199    2.9020 H   0  0  0  0  0  0  0  0  0  0  0  0
   -5.2794   -3.4496    3.9643 H   0  0  0  0  0  0  0  0  0  0  0  0
   -3.1459   -4.1436    1.2387 H   0  0  0  0  0  0  0  0  0  0  0  0
   -6.6052   -0.2415    4.6455 H   0  0  0  0  0  0  0  0  0  0  0  0
   -0.6059    1.8484   -0.2175 H   0  0  0  0  0  0  0  0  0  0  0  0
   -4.3475    3.9802   -2.7251 H   0  0  0  0  0  0  0  0  0  0  0  0
   -4.7188    1.8369   -1.5416 H   0  0  0  0  0  0  0  0  0  0  0  0
   -1.1530    5.5075   -2.5973 H   0  0  0  0  0  0  0  0  0  0  0  0
    0.6220    3.6657   -0.9219 H   0  0  0  0  0  0  0  0  0  0  0  0
   -0.3633   -0.4491   -3.3963 H   0  0  0  0  0  0  0  0  0  0  0  0
    3.0850   -1.4690   -3.2660 H   0  0  0  0  0  0  0  0  0  0  0  0
    1.0401   -5.2391   -0.6447 H   0  0  0  0  0  0  0  0  0  0  0  0
    6.2366    0.5973    1.3897 H   0  0  0  0  0  0  0  0  0  0  0  0
    5.5455    2.5161   -0.8653 H   0  0  0  0  0  0  0  0  0  0  0  0
    2.7832    3.5889   -1.1746 H   0  0  0  0  0  0  0  0  0  0  0  0
  1  2  1  0
  2  3  1  0
  3  4  1  0
  4  5  1  0
  5  6  1  0
  6  7  1  0
  6  8  1  0
  8  9  1  0
  9 10  1  0
 10 11  1  0
 11 12  1  0
 12 13  1  0
 13 14  1  0
 14 15  1  0
 14 16  1  0
 16 17  1  0
 17 18  2  0
 18 19  1  0
 19 20  1  0
 20 21  2  0
 21 22  1  0
 22 23  2  0
 23 24  1  0
 24 25  2  0
 25 26  1  0
 26 27  2  0
 24 28  1  0
 22 29  1  0
 18 30  1  0
 30 31  2  0
 31 32  1  0
 32 33  2  0
 33 34  1  0
 34 35  2  0
 33 36  1  0
 32 37  1  0
 13 38  1  0
 12 39  1  0
 11 40  1  0
  5 41  1  0
  4 42  1  0
  3 43  1  0
  7  2  1  0
 15 10  1  0
 26 17  1  0
 25 20  1  0
 35 30  1  0
  1 44  1  0
  1 45  1  0
  1 46  1  0
  2 47  1  6
  3 48  1  1
  4 49  1  6
  5 50  1  6
  6 51  1  1
  9 52  1  0
  9 53  1  0
 10 54  1  1
 11 55  1  1
 12 56  1  6
 13 57  1  1
 14 58  1  6
 21 59  1  0
 23 60  1  0
 28 61  1  0
 29 62  1  0
 31 63  1  0
 34 64  1  0
 35 65  1  0
 36 66  1  0
 37 67  1  0
 38 68  1  0
 39 69  1  0
 40 70  1  0
 41 71  1  0
 42 72  1  0
 43 73  1  0
M  END
$$$$
isoquercitrin
     RDKit          3D

 53 56  0  0  0  0  0  0  0  0999 V2000
   -1.4847    2.2249    2.2192 C   0  0  0  0  0  0  0  0  0  0  0  0
   -1.2874    3.5951    2.4219 C   0  0  0  0  0  0  0  0  0  0  0  0
   -1.3794    4.4588    1.3380 C   0  0  0  0  0  0  0  0  0  0  0  0
   -1.6668    3.9661    0.0678 C   0  0  0  0  0  0  0  0  0  0  0  0
   -1.8581    2.6079   -0.1442 C   0  0  0  0  0  0  0  0  0  0  0  0
   -1.7628    1.7207    0.9366 C   0  0  0  0  0  0  0  0  0  0  0  0
   -1.9709    0.2753    0.7450 C   0  0  0  0  0  0  0  0  0  0  0  0
   -1.1353   -0.4732    0.0002 C   0  0  0  0  0  0  0  0  0  0  0  0
   -1.4641   -1.9195   -0.1619 C   0  0  0  0  0  0  0  0  0  0  0  0
   -0.7819   -2.6841   -0.8440 O   0  0  0  0  0  0  0  0  0  0  0  0
   -2.6564   -2.4207    0.5368 C   0  0  0  0  0  0  0  0  0  0  0  0
   -3.0536   -3.7611    0.4541 C   0  0  0  0  0  0  0  0  0  0  0  0
   -4.1850   -4.2056    1.1356 C   0  0  0  0  0  0  0  0  0  0  0  0
   -4.9166   -3.3006    1.8981 C   0  0  0  0  0  0  0  0  0  0  0  0
   -4.5343   -1.9657    1.9863 C   0  0  0  0  0  0  0  0  0  0  0  0
   -3.4006   -1.5275    1.3017 C   0  0  0  0  0  0  0  0  0  0  0  0
   -3.0771   -0.2024    1.4247 O   0  0  0  0  0  0  0  0  0  0  0  0
   -6.0300   -3.6868    2.5829 O   0  0  0  0  0  0  0  0  0  0  0  0
   -2.3788   -4.6989   -0.2800 O   0  0  0  0  0  0  0  0  0  0  0  0
   -0.0403    0.0809   -0.6421 O   0  0  0  0  0  0  0  0  0  0  0  0
    1.1818   -0.6354   -0.4504 C   0  0  1  0  0  0  0  0  0  0  0  0
    1.6522   -1.2172   -1.7979 C   0  0  1  0  0  0  0  0  0  0  0  0
    2.9747   -0.5156   -2.0672 C   0  0  2  0  0  0  0  0  0  0  0  0
    3.4207   -0.0950   -0.6672 C   0  0  2  0  0  0  0  0  0  0  0  0
    2.2031    0.2571    0.0235 O   0  0  0  0  0  0  0  0  0  0  0  0
    4.4192    1.0764   -0.5966 C   0  0  1  0  0  0  0  0  0  0  0  0
    5.7346    0.7719   -1.3190 C   0  0  0  0  0  0  0  0  0  0  0  0
    6.2960   -0.4579   -0.8790 O   0  0  0  0  0  0  0  0  0  0  0  0
    3.8801    2.2933   -1.1315 O   0  0  0  0  0  0  0  0  0  0  0  0
    2.7640    0.6273   -2.9090 O   0  0  0  0  0  0  0  0  0  0  0  0
    1.8585   -2.6319   -1.7061 O   0  0  0  0  0  0  0  0  0  0  0  0
   -1.7635    4.8252   -0.9900 O   0  0  0  0  0  0  0  0  0  0  0  0
   -1.1964    5.8074    1.4703 O   0  0  0  0  0  0  0  0  0  0  0  0
   -1.4116    1.5478    3.0678 H   0  0  0  0  0  0  0  0  0  0  0  0
   -1.0660    3.9593    3.4197 H   0  0  0  0  0  0  0  0  0  0  0  0
   -2.0755    2.2513   -1.1467 H   0  0  0  0  0  0  0  0  0  0  0  0
   -4.4762   -5.2487    1.0596 H   0  0  0  0  0  0  0  0  0  0  0  0
   -5.1194   -1.2718    2.5842 H   0  0  0  0  0  0  0  0  0  0  0  0
   -6.1847   -4.6341    2.4270 H   0  0  0  0  0  0  0  0  0  0  0  0
   -1.6193   -4.2596   -0.7201 H   0  0  0  0  0  0  0  0  0  0  0  0
    1.0899   -1.4143    0.3176 H   0  0  0  0  0  0  0  0  0  0  0  0
    0.9243   -1.0466   -2.5987 H   0  0  0  0  0  0  0  0  0  0  0  0
    3.7211   -1.1555   -2.5485 H   0  0  0  0  0  0  0  0  0  0  0  0
    3.8348   -0.9643   -0.1393 H   0  0  0  0  0  0  0  0  0  0  0  0
    4.6279    1.2732    0.4616 H   0  0  0  0  0  0  0  0  0  0  0  0
    6.4539    1.5771   -1.1311 H   0  0  0  0  0  0  0  0  0  0  0  0
    5.5866    0.7240   -2.4033 H   0  0  0  0  0  0  0  0  0  0  0  0
    7.1754   -0.5274   -1.2909 H   0  0  0  0  0  0  0  0  0  0  0  0
    3.2487    2.0257   -1.8337 H   0  0  0  0  0  0  0  0  0  0  0  0
    2.4568    0.2921   -3.7720 H   0  0  0  0  0  0  0  0  0  0  0  0
    0.9767   -3.0086   -1.4925 H   0  0  0  0  0  0  0  0  0  0  0  0
   -1.5650    5.7035   -0.6082 H   0  0  0  0  0  0  0  0  0  0  0  0
   -0.9396    5.9875    2.3909 H   0  0  0  0  0  0  0  0  0  0  0  0
  1  2  2  0
  2  3  1  0
  3  4  2  0
  4  5  1  0
  5  6  2  0
  6  7  1  0
  7  8  2  0
  8  9  1  0
  9 10  2  0
  9 11  1  0
 11 12  2  0
 12 13  1  0
 13 14  2  0
 14 15  1  0
 15 16  2  0
 16 17  1  0
 14 18  1  0
 12 19  1  0
  8 20  1  0
 20 21  1  0
 21 22  1  0
 22 23  1  0
 23 24  1  0
 24 25  1  0
 24 26  1  0
 26 27  1  0
 27 28  1  0
 26 29  1  0
 23 30  1  0
 22 31  1  0
  4 32  1  0
  3 33  1  0
  6  1  1  0
 17  7  1  0
 16 11  1  0
 25 21  1  0
  1 34  1  0
  2 35  1  0
  5 36  1  0
 13 37  1  0
 15 38  1  0
 18 39  1  0
 19 40  1  0
 21 41  1  1
 22 42  1  6
 23 43  1  6
 24 44  1  1
 26 45  1  1
 27 46  1  0
 27 47  1  0
 28 48  1  0
 29 49  1  0
 30 50  1  0
 31 51  1  0
 32 52  1  0
 33 53  1  0
M  END
$$$$
apigenin
     RDKit          3D

 30 32  0  0  0  0  0  0  0  0999 V2000
    2.8740   -0.9832   -0.6434 C   0  0  0  0  0  0  0  0  0  0  0  0
    4.2228   -0.6294   -0.7316 C   0  0  0  0  0  0  0  0  0  0  0  0
    4.6395    0.6176   -0.2844 C   0  0  0  0  0  0  0  0  0  0  0  0
    3.7288    1.5225    0.2480 C   0  0  0  0  0  0  0  0  0  0  0  0
    2.3791    1.1675    0.3350 C   0  0  0  0  0  0  0  0  0  0  0  0
    1.9352   -0.0914   -0.1015 C   0  0  0  0  0  0  0  0  0  0  0  0
    0.5049   -0.4410   -0.0082 C   0  0  0  0  0  0  0  0  0  0  0  0
    0.1027   -1.6392    0.4401 C   0  0  0  0  0  0  0  0  0  0  0  0
   -1.3369   -1.9236    0.5197 C   0  0  0  0  0  0  0  0  0  0  0  0
   -1.7575   -3.0035    0.9199 O   0  0  0  0  0  0  0  0  0  0  0  0
   -2.2533   -0.8582    0.0972 C   0  0  0  0  0  0  0  0  0  0  0  0
   -3.6409   -1.0268    0.1284 C   0  0  0  0  0  0  0  0  0  0  0  0
   -4.4774    0.0076   -0.2817 C   0  0  0  0  0  0  0  0  0  0  0  0
   -3.9214    1.2060   -0.7217 C   0  0  0  0  0  0  0  0  0  0  0  0
   -2.5409    1.3871   -0.7567 C   0  0  0  0  0  0  0  0  0  0  0  0
   -1.7069    0.3462   -0.3435 C   0  0  0  0  0  0  0  0  0  0  0  0
   -0.3540    0.5764   -0.3951 O   0  0  0  0  0  0  0  0  0  0  0  0
   -4.7753    2.1933   -1.1161 O   0  0  0  0  0  0  0  0  0  0  0  0
   -4.2416   -2.1818    0.5505 O   0  0  0  0  0  0  0  0  0  0  0  0
    5.9642    0.9195   -0.3896 O   0  0  0  0  0  0  0  0  0  0  0  0
    2.5678   -1.9584   -1.0152 H   0  0  0  0  0  0  0  0  0  0  0  0
    4.9445   -1.3243   -1.1524 H   0  0  0  0  0  0  0  0  0  0  0  0
    4.0443    2.5003    0.5977 H   0  0  0  0  0  0  0  0  0  0  0  0
    1.6742    1.8822    0.7554 H   0  0  0  0  0  0  0  0  0  0  0  0
    0.7747   -2.4236    0.7634 H   0  0  0  0  0  0  0  0  0  0  0  0
   -5.5560   -0.1203   -0.2590 H   0  0  0  0  0  0  0  0  0  0  0  0
   -2.1040    2.3197   -1.0993 H   0  0  0  0  0  0  0  0  0  0  0  0
   -4.2621    2.9641   -1.4095 H   0  0  0  0  0  0  0  0  0  0  0  0
   -3.5381   -2.8193    0.8082 H   0  0  0  0  0  0  0  0  0  0  0  0
    6.1095    1.8140   -0.0404 H   0  0  0  0  0  0  0  0  0  0  0  0
  1  2  2  0
  2  3  1  0
  3  4  2  0
  4  5  1  0
  5  6  2  0
  6  7  1  0
  7  8  2  0
  8  9  1  0
  9 10  2  0
  9 11  1  0
 11 12  2  0
 12 13  1  0
 13 14  2  0
 14 15  1  0
 15 16  2  0
 16 17  1  0
 14 18  1  0
 12 19  1  0
  3 20  1  0
  6  1  1  0
 17  7  1  0
 16 11  1  0
  1 21  1  0
  2 22  1  0
  4 23  1  0
  5 24  1  0
  8 25  1  0
 13 26  1  0
 15 27  1  0
 18 28  1  0
 19 29  1  0
 20 30  1  0
M  END
$$$$
luteolin
     RDKit          3D

 31 33  0  0  0  0  0  0  0  0999 V2000
   -2.2694    1.1347    0.2174 C   0  0  0  0  0  0  0  0  0  0  0  0
   -3.6372    1.3750    0.0405 C   0  0  0  0  0  0  0  0  0  0  0  0
   -4.4712    0.3160   -0.2893 C   0  0  0  0  0  0  0  0  0  0  0  0
   -3.9496   -0.9647   -0.4440 C   0  0  0  0  0  0  0  0  0  0  0  0
   -2.5936   -1.2118   -0.2701 C   0  0  0  0  0  0  0  0  0  0  0  0
   -1.7323   -0.1589    0.0726 C   0  0  0  0  0  0  0  0  0  0  0  0
   -0.2847   -0.3790    0.2569 C   0  0  0  0  0  0  0  0  0  0  0  0
    0.1846   -1.4286    0.9472 C   0  0  0  0  0  0  0  0  0  0  0  0
    1.6372   -1.5857    1.1059 C   0  0  0  0  0  0  0  0  0  0  0  0
    2.1186   -2.5251    1.7295 O   0  0  0  0  0  0  0  0  0  0  0  0
    2.4914   -0.5672    0.4844 C   0  0  0  0  0  0  0  0  0  0  0  0
    3.8858   -0.6262    0.5688 C   0  0  0  0  0  0  0  0  0  0  0  0
    4.6623    0.3589   -0.0350 C   0  0  0  0  0  0  0  0  0  0  0  0
    4.0399    1.3983   -0.7212 C   0  0  0  0  0  0  0  0  0  0  0  0
    2.6517    1.4695   -0.8114 C   0  0  0  0  0  0  0  0  0  0  0  0
    1.8781    0.4791   -0.2029 C   0  0  0  0  0  0  0  0  0  0  0  0
    0.5148    0.5973   -0.3182 O   0  0  0  0  0  0  0  0  0  0  0  0
    4.8363    2.3418   -1.3000 O   0  0  0  0  0  0  0  0  0  0  0  0
    4.5506   -1.6237    1.2292 O   0  0  0  0  0  0  0  0  0  0  0  0
   -4.7754   -2.0012   -0.7748 O   0  0  0  0  0  0  0  0  0  0  0  0
   -5.8149    0.4825   -0.4758 O   0  0  0  0  0  0  0  0  0  0  0  0
   -1.6205    1.9689    0.4788 H   0  0  0  0  0  0  0  0  0  0  0  0
   -4.0211    2.3824    0.1639 H   0  0  0  0  0  0  0  0  0  0  0  0
   -2.2233   -2.2228   -0.4161 H   0  0  0  0  0  0  0  0  0  0  0  0
   -0.4417   -2.1783    1.4137 H   0  0  0  0  0  0  0  0  0  0  0  0
    5.7460    0.3155    0.0282 H   0  0  0  0  0  0  0  0  0  0  0  0
    2.1632    2.2783   -1.3453 H   0  0  0  0  0  0  0  0  0  0  0  0
    4.2813    2.9945   -1.7577 H   0  0  0  0  0  0  0  0  0  0  0  0
    3.8844   -2.2437    1.6028 H   0  0  0  0  0  0  0  0  0  0  0  0
   -5.6632   -1.5966   -0.8450 H   0  0  0  0  0  0  0  0  0  0  0  0
   -6.0284    1.4207   -0.3332 H   0  0  0  0  0  0  0  0  0  0  0  0
  1  2  2  0
  2  3  1  0
  3  4  2  0
  4  5  1  0
  5  6  2  0
  6  7  1  0
  7  8  2  0
  8  9  1  0
  9 10  2  0
  9 11  1  0
 11 12  2  0
 12 13  1  0
 13 14  2  0
 14 15  1  0
 15 16  2  0
 16 17  1  0
 14 18  1  0
 12 19  1  0
  4 20  1  0
  3 21  1  0
  6  1  1  0
 17  7  1  0
 16 11  1  0
  1 22  1  0
  2 23  1  0
  5 24  1  0
  8 25  1  0
 13 26  1  0
 15 27  1  0
 18 28  1  0
 19 29  1  0
 20 30  1  0
 21 31  1  0
M  END
$$$$
catechin
     RDKit          3D

 35 37  0  0  0  0  0  0  0  0999 V2000
   -1.7538    0.6775   -1.5806 C   0  0  0  0  0  0  0  0  0  0  0  0
   -0.3255    1.0227   -1.1656 C   0  0  1  0  0  0  0  0  0  0  0  0
    0.3186   -0.2326   -0.5497 C   0  0  2  0  0  0  0  0  0  0  0  0
   -0.3852   -0.6700    0.6212 O   0  0  0  0  0  0  0  0  0  0  0  0
   -1.7462   -0.7486    0.4908 C   0  0  0  0  0  0  0  0  0  0  0  0
   -2.3957   -1.4739    1.4932 C   0  0  0  0  0  0  0  0  0  0  0  0
   -3.7768   -1.6145    1.4513 C   0  0  0  0  0  0  0  0  0  0  0  0
   -4.5135   -1.0431    0.4237 C   0  0  0  0  0  0  0  0  0  0  0  0
   -3.8608   -0.3129   -0.5677 C   0  0  0  0  0  0  0  0  0  0  0  0
   -2.4704   -0.1325   -0.5401 C   0  0  0  0  0  0  0  0  0  0  0  0
   -4.6586    0.2063   -1.5490 O   0  0  0  0  0  0  0  0  0  0  0  0
   -4.4490   -2.3179    2.4067 O   0  0  0  0  0  0  0  0  0  0  0  0
    1.7624    0.0267   -0.1424 C   0  0  0  0  0  0  0  0  0  0  0  0
    2.0671    0.8379    0.9631 C   0  0  0  0  0  0  0  0  0  0  0  0
    3.3926    1.0808    1.2950 C   0  0  0  0  0  0  0  0  0  0  0  0
    4.4293    0.5284    0.5488 C   0  0  0  0  0  0  0  0  0  0  0  0
    4.1518   -0.2771   -0.5478 C   0  0  0  0  0  0  0  0  0  0  0  0
    2.8188   -0.5249   -0.8926 C   0  0  0  0  0  0  0  0  0  0  0  0
    5.7105    0.8093    0.9347 O   0  0  0  0  0  0  0  0  0  0  0  0
    3.6740    1.8759    2.3686 O   0  0  0  0  0  0  0  0  0  0  0  0
    0.3715    1.4796   -2.3301 O   0  0  0  0  0  0  0  0  0  0  0  0
   -1.7454    0.1154   -2.5236 H   0  0  0  0  0  0  0  0  0  0  0  0
   -2.2884    1.6152   -1.7767 H   0  0  0  0  0  0  0  0  0  0  0  0
   -0.3547    1.8431   -0.4367 H   0  0  0  0  0  0  0  0  0  0  0  0
    0.3119   -1.0568   -1.2772 H   0  0  0  0  0  0  0  0  0  0  0  0
   -1.8085   -1.9224    2.2884 H   0  0  0  0  0  0  0  0  0  0  0  0
   -5.5922   -1.1649    0.3926 H   0  0  0  0  0  0  0  0  0  0  0  0
   -4.1131    0.5789   -2.2584 H   0  0  0  0  0  0  0  0  0  0  0  0
   -3.8100   -2.6397    3.0638 H   0  0  0  0  0  0  0  0  0  0  0  0
    1.2780    1.2744    1.5705 H   0  0  0  0  0  0  0  0  0  0  0  0
    4.9460   -0.7173   -1.1422 H   0  0  0  0  0  0  0  0  0  0  0  0
    2.6069   -1.1544   -1.7556 H   0  0  0  0  0  0  0  0  0  0  0  0
    6.3172    0.3360    0.3397 H   0  0  0  0  0  0  0  0  0  0  0  0
    4.6508    1.8897    2.4144 H   0  0  0  0  0  0  0  0  0  0  0  0
    1.2407    1.8057   -2.0304 H   0  0  0  0  0  0  0  0  0  0  0  0
  1  2  1  0
  2  3  1  0
  3  4  1  0
  4  5  1  0
  5  6  2  0
  6  7  1  0
  7  8  2  0
  8  9  1  0
  9 10  2  0
  9 11  1  0
  7 12  1  0
  3 13  1  0
 13 14  2  0
 14 15  1  0
 15 16  2  0
 16 17  1  0
 17 18  2  0
 16 19  1  0
 15 20  1  0
  2 21  1  0
 10  1  1  0
 10  5  1  0
 18 13  1  0
  1 22  1  0
  1 23  1  0
  2 24  1  1
  3 25  1  6
  6 26  1  0
  8 27  1  0
 11 28  1  0
 12 29  1  0
 14 30  1  0
 17 31  1  0
 18 32  1  0
 19 33  1  0
 20 34  1  0
 21 35  1  0
M  END
$$$$
epicatechin
     RDKit          3D

 35 37  0  0  0  0  0  0  0  0999 V2000
   -1.9426    0.5355   -1.4557 C   0  0  0  0  0  0  0  0  0  0  0  0
   -0.5344    1.0788   -1.2010 C   0  0  2  0  0  0  0  0  0  0  0  0
    0.3192   -0.0369   -0.5685 C   0  0  2  0  0  0  0  0  0  0  0  0
   -0.2241   -0.3831    0.7192 O   0  0  0  0  0  0  0  0  0  0  0  0
   -1.5511   -0.7308    0.6924 C   0  0  0  0  0  0  0  0  0  0  0  0
   -1.9902   -1.4954    1.7755 C   0  0  0  0  0  0  0  0  0  0  0  0
   -3.3183   -1.8964    1.8318 C   0  0  0  0  0  0  0  0  0  0  0  0
   -4.2076   -1.5386    0.8280 C   0  0  0  0  0  0  0  0  0  0  0  0
   -3.7674   -0.7564   -0.2388 C   0  0  0  0  0  0  0  0  0  0  0  0
   -2.4363   -0.3240   -0.3193 C   0  0  0  0  0  0  0  0  0  0  0  0
   -4.7107   -0.4505   -1.1792 O   0  0  0  0  0  0  0  0  0  0  0  0
   -3.7900   -2.6521    2.8641 O   0  0  0  0  0  0  0  0  0  0  0  0
    1.8010    0.2475   -0.3671 C   0  0  0  0  0  0  0  0  0  0  0  0
    2.3851    1.5096   -0.5592 C   0  0  0  0  0  0  0  0  0  0  0  0
    3.7560    1.6931   -0.3617 C   0  0  0  0  0  0  0  0  0  0  0  0
    4.5639    0.6266    0.0265 C   0  0  0  0  0  0  0  0  0  0  0  0
    4.0064   -0.6312    0.2275 C   0  0  0  0  0  0  0  0  0  0  0  0
    2.6346   -0.8162    0.0333 C   0  0  0  0  0  0  0  0  0  0  0  0
    5.9022    0.8288    0.2117 O   0  0  0  0  0  0  0  0  0  0  0  0
    4.3184    2.9257   -0.5478 O   0  0  0  0  0  0  0  0  0  0  0  0
   -0.6399    2.2320   -0.3494 O   0  0  0  0  0  0  0  0  0  0  0  0
   -1.9345   -0.0805   -2.3632 H   0  0  0  0  0  0  0  0  0  0  0  0
   -2.6294    1.3767   -1.6052 H   0  0  0  0  0  0  0  0  0  0  0  0
   -0.1051    1.4217   -2.1489 H   0  0  0  0  0  0  0  0  0  0  0  0
    0.2691   -0.9230   -1.2203 H   0  0  0  0  0  0  0  0  0  0  0  0
   -1.2849   -1.7733    2.5522 H   0  0  0  0  0  0  0  0  0  0  0  0
   -5.2435   -1.8619    0.8773 H   0  0  0  0  0  0  0  0  0  0  0  0
   -4.3364    0.1316   -1.8569 H   0  0  0  0  0  0  0  0  0  0  0  0
   -3.0687   -2.8056    3.4963 H   0  0  0  0  0  0  0  0  0  0  0  0
    1.7797    2.3593   -0.8595 H   0  0  0  0  0  0  0  0  0  0  0  0
    4.6168   -1.4739    0.5359 H   0  0  0  0  0  0  0  0  0  0  0  0
    2.2092   -1.8047    0.2020 H   0  0  0  0  0  0  0  0  0  0  0  0
    6.3117   -0.0022    0.4955 H   0  0  0  0  0  0  0  0  0  0  0  0
    3.6163    3.5696   -0.7277 H   0  0  0  0  0  0  0  0  0  0  0  0
   -0.7746    1.9002    0.5601 H   0  0  0  0  0  0  0  0  0  0  0  0
  1  2  1  0
  2  3  1  0
  3  4  1  0
  4  5  1  0
  5  6  2  0
  6  7  1  0
  7  8  2  0
  8  9  1  0
  9 10  2  0
  9 11  1  0
  7 12  1  0
  3 13  1  0
 13 14  2  0
 14 15  1  0
 15 16  2  0
 16 17  1  0
 17 18  2  0
 16 19  1  0
 15 20  1  0
  2 21  1  0
 10  1  1  0
 10  5  1  0
 18 13  1  0
  1 22  1  0
  1 23  1  0
  2 24  1  6
  3 25  1  6
  6 26  1  0
  8 27  1  0
 11 28  1  0
 12 29  1  0
 14 30  1  0
 17 31  1  0
 18 32  1  0
 19 33  1  0
 20 34  1  0
 21 35  1  0
M  END
$$$$
gallic acid
     RDKit          3D

 18 18  0  0  0  0  0  0  0  0999 V2000
   -0.0677   -1.2359   -0.1200 C   0  0  0  0  0  0  0  0  0  0  0  0
   -0.9757   -0.3170    0.4370 C   0  0  0  0  0  0  0  0  0  0  0  0
   -0.6735    1.0528    0.4592 C   0  0  0  0  0  0  0  0  0  0  0  0
    0.5315    1.4891   -0.0751 C   0  0  0  0  0  0  0  0  0  0  0  0
    1.4295    0.5835   -0.6256 C   0  0  0  0  0  0  0  0  0  0  0  0
    1.1326   -0.7743   -0.6487 C   0  0  0  0  0  0  0  0  0  0  0  0
    2.0539   -1.6182   -1.2030 O   0  0  0  0  0  0  0  0  0  0  0  0
    2.6082    1.0472   -1.1435 O   0  0  0  0  0  0  0  0  0  0  0  0
    0.8302    2.8205   -0.0560 O   0  0  0  0  0  0  0  0  0  0  0  0
   -2.2440   -0.8470    0.9905 C   0  0  0  0  0  0  0  0  0  0  0  0
   -2.5713   -2.0195    1.0051 O   0  0  0  0  0  0  0  0  0  0  0  0
   -3.0381    0.1106    1.4968 O   0  0  0  0  0  0  0  0  0  0  0  0
   -0.3133   -2.2946   -0.1312 H   0  0  0  0  0  0  0  0  0  0  0  0
   -1.3621    1.7770    0.8850 H   0  0  0  0  0  0  0  0  0  0  0  0
    1.7107   -2.5280   -1.1482 H   0  0  0  0  0  0  0  0  0  0  0  0
    3.0641    0.2423   -1.4658 H   0  0  0  0  0  0  0  0  0  0  0  0
    1.7111    2.8843   -0.4781 H   0  0  0  0  0  0  0  0  0  0  0  0
   -3.8262   -0.3727    1.8216 H   0  0  0  0  0  0  0  0  0  0  0  0
  1  2  1  0
  2  3  2  0
  3  4  1  0
  4  5  2  0
  5  6  1  0
  6  7  1  0
  5  8  1  0
  4  9  1  0
  2 10  1  0
 10 11  2  0
 10 12  1  0
  6  1  2  0
  1 13  1  0
  3 14  1  0
  7 15  1  0
  8 16  1  0
  9 17  1  0
 12 18  1  0
M  END
$$$$
ellagic acid
     RDKit          3D

 28 31  0  0  0  0  0  0  0  0999 V2000
    2.6925    1.6648   -0.1103 C   0  0  0  0  0  0  0  0  0  0  0  0
    1.3013    1.4929   -0.0967 C   0  0  0  0  0  0  0  0  0  0  0  0
    0.7546    0.2075   -0.0580 C   0  0  0  0  0  0  0  0  0  0  0  0
    1.5997   -0.8966   -0.0330 C   0  0  0  0  0  0  0  0  0  0  0  0
    2.9788   -0.7393   -0.0461 C   0  0  0  0  0  0  0  0  0  0  0  0
    3.5163    0.5434   -0.0847 C   0  0  0  0  0  0  0  0  0  0  0  0
    4.8697    0.7157   -0.0981 O   0  0  0  0  0  0  0  0  0  0  0  0
    3.8330   -1.8050   -0.0223 O   0  0  0  0  0  0  0  0  0  0  0  0
    1.0675   -2.2027    0.0063 O   0  0  0  0  0  0  0  0  0  0  0  0
   -0.3058   -2.4576    0.0220 C   0  0  0  0  0  0  0  0  0  0  0  0
   -0.7475   -3.5986    0.0561 O   0  0  0  0  0  0  0  0  0  0  0  0
   -1.2090   -1.2789   -0.0046 C   0  0  0  0  0  0  0  0  0  0  0  0
   -2.6002   -1.4626    0.0092 C   0  0  0  0  0  0  0  0  0  0  0  0
   -3.4296   -0.3447   -0.0162 C   0  0  0  0  0  0  0  0  0  0  0  0
   -2.8915    0.9418   -0.0549 C   0  0  0  0  0  0  0  0  0  0  0  0
   -1.5127    1.1098   -0.0683 C   0  0  0  0  0  0  0  0  0  0  0  0
   -0.6656    0.0077   -0.0434 C   0  0  0  0  0  0  0  0  0  0  0  0
   -0.9691    2.4132   -0.1076 O   0  0  0  0  0  0  0  0  0  0  0  0
    0.4019    2.6753   -0.1235 C   0  0  0  0  0  0  0  0  0  0  0  0
    0.8469    3.8149   -0.1576 O   0  0  0  0  0  0  0  0  0  0  0  0
   -3.7266    2.0206   -0.0793 O   0  0  0  0  0  0  0  0  0  0  0  0
   -4.7921   -0.4604   -0.0043 O   0  0  0  0  0  0  0  0  0  0  0  0
    3.1318    2.6596   -0.1404 H   0  0  0  0  0  0  0  0  0  0  0  0
    5.2475   -0.1867   -0.0757 H   0  0  0  0  0  0  0  0  0  0  0  0
    3.2848   -2.6134    0.0034 H   0  0  0  0  0  0  0  0  0  0  0  0
   -3.0136   -2.4676    0.0395 H   0  0  0  0  0  0  0  0  0  0  0  0
   -4.6317    1.6512   -0.0634 H   0  0  0  0  0  0  0  0  0  0  0  0
   -5.0312   -1.4042    0.0231 H   0  0  0  0  0  0  0  0  0  0  0  0
  1  2  1  0
  2  3  2  0
  3  4  1  0
  4  5  2  0
  5  6  1  0
  6  7  1  0
  5  8  1  0
  4  9  1  0
  9 10  1  0
 10 11  2  0
 10 12  1  0
 12 13  2  0
 13 14  1  0
 14 15  2  0
 15 16  1  0
 16 17  2  0
 16 18  1  0
 18 19  1  0
 19 20  2  0
 15 21  1  0
 14 22  1  0
  6  1  2  0
 19  2  1  0
 17  3  1  0
 17 12  1  0
  1 23  1  0
  7 24  1  0
  8 25  1  0
 13 26  1  0
 21 27  1  0
 22 28  1  0
M  END
$$$$
chlorogenic acid
     RDKit          3D

 43 44  0  0  0  0  0  0  0  0999 V2000
   -4.4392   -1.4473    0.4752 C   0  0  0  0  0  0  0  0  0  0  0  0
   -3.4768   -1.9785    1.5292 C   0  0  2  0  0  0  0  0  0  0  0  0
   -2.0191   -1.9555    1.0272 C   0  0  2  0  0  0  0  0  0  0  0  0
   -1.7315   -0.8010    0.0433 C   0  0  1  0  0  0  0  0  0  0  0  0
   -2.6482    0.3927    0.3102 C   0  0  0  0  0  0  0  0  0  0  0  0
   -4.1268    0.0139    0.1172 C   0  0  2  0  0  0  0  0  0  0  0  0
   -5.0033    0.9357    0.9834 C   0  0  0  0  0  0  0  0  0  0  0  0
   -4.8319    1.2243    2.1552 O   0  0  0  0  0  0  0  0  0  0  0  0
   -6.0783    1.3997    0.3045 O   0  0  0  0  0  0  0  0  0  0  0  0
   -4.4337    0.1795   -1.2724 O   0  0  0  0  0  0  0  0  0  0  0  0
   -0.3535   -0.4094    0.2322 O   0  0  0  0  0  0  0  0  0  0  0  0
    0.2711    0.1206   -0.8476 C   0  0  0  0  0  0  0  0  0  0  0  0
   -0.2160    0.3197   -1.9466 O   0  0  0  0  0  0  0  0  0  0  0  0
    1.6639    0.4225   -0.4613 C   0  0  0  0  0  0  0  0  0  0  0  0
    2.4996    0.9756   -1.3530 C   0  0  0  0  0  0  0  0  0  0  0  0
    3.8952    1.3226   -1.0549 C   0  0  0  0  0  0  0  0  0  0  0  0
    4.7292    0.4786   -0.3043 C   0  0  0  0  0  0  0  0  0  0  0  0
    6.0520    0.8467   -0.0759 C   0  0  0  0  0  0  0  0  0  0  0  0
    6.5527    2.0384   -0.5922 C   0  0  0  0  0  0  0  0  0  0  0  0
    5.7485    2.8758   -1.3481 C   0  0  0  0  0  0  0  0  0  0  0  0
    4.4200    2.5133   -1.5847 C   0  0  0  0  0  0  0  0  0  0  0  0
    7.8512    2.3903   -0.3615 O   0  0  0  0  0  0  0  0  0  0  0  0
    6.9064    0.0623    0.6500 O   0  0  0  0  0  0  0  0  0  0  0  0
   -1.7158   -3.2230    0.4110 O   0  0  0  0  0  0  0  0  0  0  0  0
   -3.8638   -3.3058    1.8872 O   0  0  0  0  0  0  0  0  0  0  0  0
   -5.4728   -1.5537    0.8307 H   0  0  0  0  0  0  0  0  0  0  0  0
   -4.3903   -2.0867   -0.4172 H   0  0  0  0  0  0  0  0  0  0  0  0
   -3.5591   -1.3617    2.4316 H   0  0  0  0  0  0  0  0  0  0  0  0
   -1.3532   -1.8983    1.8964 H   0  0  0  0  0  0  0  0  0  0  0  0
   -1.8682   -1.1620   -0.9846 H   0  0  0  0  0  0  0  0  0  0  0  0
   -2.4518    0.7602    1.3262 H   0  0  0  0  0  0  0  0  0  0  0  0
   -2.3780    1.2230   -0.3548 H   0  0  0  0  0  0  0  0  0  0  0  0
   -6.5519    1.9595    0.9581 H   0  0  0  0  0  0  0  0  0  0  0  0
   -5.3646    0.4819   -1.3133 H   0  0  0  0  0  0  0  0  0  0  0  0
    1.9557    0.1913    0.5553 H   0  0  0  0  0  0  0  0  0  0  0  0
    2.1522    1.2183   -2.3566 H   0  0  0  0  0  0  0  0  0  0  0  0
    4.3485   -0.4606    0.0838 H   0  0  0  0  0  0  0  0  0  0  0  0
    6.1500    3.8002   -1.7520 H   0  0  0  0  0  0  0  0  0  0  0  0
    3.7948    3.1751   -2.1811 H   0  0  0  0  0  0  0  0  0  0  0  0
    8.2118    1.6579    0.1769 H   0  0  0  0  0  0  0  0  0  0  0  0
    6.4287   -0.7407    0.9202 H   0  0  0  0  0  0  0  0  0  0  0  0
   -2.2057   -3.2768   -0.4308 H   0  0  0  0  0  0  0  0  0  0  0  0
   -3.0979   -3.8833    1.6880 H   0  0  0  0  0  0  0  0  0  0  0  0
  1  2  1  0
  2  3  1  0
  3  4  1  0
  4  5  1  0
  5  6  1  0
  6  7  1  0
  7  8  2  0
  7  9  1  0
  6 10  1  6
  4 11  1  0
 11 12  1  0
 12 13  2  0
 12 14  1  0
 14 15  2  0
 15 16  1  0
 16 17  2  0
 17 18  1  0
 18 19  2  0
 19 20  1  0
 20 21  2  0
 19 22  1  0
 18 23  1  0
  3 24  1  0
  2 25  1  0
  6  1  1  0
 21 16  1  0
  1 26  1  0
  1 27  1  0
  2 28  1  1
  3 29  1  1
  4 30  1  6
  5 31  1  0
  5 32  1  0
  9 33  1  0
 10 34  1  0
 14 35  1  0
 15 36  1  0
 17 37  1  0
 20 38  1  0
 21 39  1  0
 22 40  1  0
 23 41  1  0
 24 42  1  0
 25 43  1  0
M  END
$$$$
caffeic acid
     RDKit          3D

 21 21  0  0  0  0  0  0  0  0999 V2000
   -0.6359   -1.0530    0.5338 C   0  0  0  0  0  0  0  0  0  0  0  0
   -2.0329   -1.1019    0.4518 C   0  0  0  0  0  0  0  0  0  0  0  0
   -2.7291    0.0400    0.0802 C   0  0  0  0  0  0  0  0  0  0  0  0
   -2.0438    1.2180   -0.2012 C   0  0  0  0  0  0  0  0  0  0  0  0
   -0.6583    1.2747   -0.1218 C   0  0  0  0  0  0  0  0  0  0  0  0
    0.0648    0.1290    0.2354 C   0  0  0  0  0  0  0  0  0  0  0  0
    1.5279    0.2226    0.3402 C   0  0  0  0  0  0  0  0  0  0  0  0
    2.3678   -0.7693    0.0061 C   0  0  0  0  0  0  0  0  0  0  0  0
    3.8300   -0.6651    0.1017 C   0  0  0  0  0  0  0  0  0  0  0  0
    4.6009   -1.5603   -0.1951 O   0  0  0  0  0  0  0  0  0  0  0  0
    4.2666    0.5191    0.5549 O   0  0  0  0  0  0  0  0  0  0  0  0
   -2.7365    2.3396   -0.5594 O   0  0  0  0  0  0  0  0  0  0  0  0
   -4.0925    0.0576   -0.0175 O   0  0  0  0  0  0  0  0  0  0  0  0
   -0.1022   -1.9477    0.8465 H   0  0  0  0  0  0  0  0  0  0  0  0
   -2.5471   -2.0284    0.6858 H   0  0  0  0  0  0  0  0  0  0  0  0
   -0.1536    2.2103   -0.3470 H   0  0  0  0  0  0  0  0  0  0  0  0
    1.9132    1.1779    0.6917 H   0  0  0  0  0  0  0  0  0  0  0  0
    2.0174   -1.7216   -0.3748 H   0  0  0  0  0  0  0  0  0  0  0  0
    5.2414    0.4247    0.5560 H   0  0  0  0  0  0  0  0  0  0  0  0
   -3.6744    2.0627   -0.5472 H   0  0  0  0  0  0  0  0  0  0  0  0
   -4.4237   -0.8291    0.2064 H   0  0  0  0  0  0  0  0  0  0  0  0
  1  2  2  0
  2  3  1  0
  3  4  2  0
  4  5  1  0
  5  6  2  0
  6  7  1  0
  7  8  2  0
  8  9  1  0
  9 10  2  0
  9 11  1  0
  4 12  1  0
  3 13  1  0
  6  1  1  0
  1 14  1  0
  2 15  1  0
  5 16  1  0
  7 17  1  0
  8 18  1  0
 11 19  1  0
 12 20  1  0
 13 21  1  0
M  END
$$$$
ferulic acid
     RDKit          3D

 24 24  0  0  0  0  0  0  0  0999 V2000
    3.1812    0.1851   -1.8815 C   0  0  0  0  0  0  0  0  0  0  0  0
    3.1732   -0.0367   -0.4759 O   0  0  0  0  0  0  0  0  0  0  0  0
    1.9466   -0.0509    0.1376 C   0  0  0  0  0  0  0  0  0  0  0  0
    1.9803   -0.2809    1.5168 C   0  0  0  0  0  0  0  0  0  0  0  0
    0.8193   -0.3181    2.2761 C   0  0  0  0  0  0  0  0  0  0  0  0
   -0.4122   -0.1262    1.6499 C   0  0  0  0  0  0  0  0  0  0  0  0
   -0.4796    0.0918    0.2658 C   0  0  0  0  0  0  0  0  0  0  0  0
    0.7102    0.1415   -0.4825 C   0  0  0  0  0  0  0  0  0  0  0  0
   -1.7566    0.3264   -0.4237 C   0  0  0  0  0  0  0  0  0  0  0  0
   -2.8902   -0.3316   -0.1355 C   0  0  0  0  0  0  0  0  0  0  0  0
   -4.1627   -0.1037   -0.8332 C   0  0  0  0  0  0  0  0  0  0  0  0
   -5.2003   -0.6870   -0.5759 O   0  0  0  0  0  0  0  0  0  0  0  0
   -4.0970    0.8201   -1.8037 O   0  0  0  0  0  0  0  0  0  0  0  0
    3.1757   -0.4716    2.1548 O   0  0  0  0  0  0  0  0  0  0  0  0
    2.6440   -0.6097   -2.4095 H   0  0  0  0  0  0  0  0  0  0  0  0
    4.2225    0.1626   -2.2169 H   0  0  0  0  0  0  0  0  0  0  0  0
    2.7734    1.1711   -2.1274 H   0  0  0  0  0  0  0  0  0  0  0  0
    0.8740   -0.4892    3.3470 H   0  0  0  0  0  0  0  0  0  0  0  0
   -1.3129   -0.1376    2.2589 H   0  0  0  0  0  0  0  0  0  0  0  0
    0.6439    0.3237   -1.5504 H   0  0  0  0  0  0  0  0  0  0  0  0
   -1.7345    1.0683   -1.2193 H   0  0  0  0  0  0  0  0  0  0  0  0
   -2.9379   -1.0930    0.6349 H   0  0  0  0  0  0  0  0  0  0  0  0
   -5.0104    0.8504   -2.1564 H   0  0  0  0  0  0  0  0  0  0  0  0
    3.8499   -0.4049    1.4509 H   0  0  0  0  0  0  0  0  0  0  0  0
  1  2  1  0
  2  3  1  0
  3  4  2  0
  4  5  1  0
  5  6  2  0
  6  7  1  0
  7  8  2  0
  7  9  1  0
  9 10  2  0
 10 11  1  0
 11 12  2  0
 11 13  1  0
  4 14  1  0
  8  3  1  0
  1 15  1  0
  1 16  1  0
  1 17  1  0
  5 18  1  0
  6 19  1  0
  8 20  1  0
  9 21  1  0
 10 22  1  0
 13 23  1  0
 14 24  1  0
M  END
$$$$
p-coumaric acid
     RDKit          3D

 20 20  0  0  0  0  0  0  0  0999 V2000
    0.7661   -1.0957    0.3623 C   0  0  0  0  0  0  0  0  0  0  0  0
    2.1477   -1.1317    0.5679 C   0  0  0  0  0  0  0  0  0  0  0  0
    2.9075    0.0103    0.3500 C   0  0  0  0  0  0  0  0  0  0  0  0
    2.3098    1.1906   -0.0764 C   0  0  0  0  0  0  0  0  0  0  0  0
    0.9272    1.2247   -0.2822 C   0  0  0  0  0  0  0  0  0  0  0  0
    0.1392    0.0875   -0.0521 C   0  0  0  0  0  0  0  0  0  0  0  0
   -1.3056    0.1645   -0.3085 C   0  0  0  0  0  0  0  0  0  0  0  0
   -2.2299   -0.4729    0.4268 C   0  0  0  0  0  0  0  0  0  0  0  0
   -3.6741   -0.3838    0.1735 C   0  0  0  0  0  0  0  0  0  0  0  0
   -4.5225   -0.9612    0.8296 O   0  0  0  0  0  0  0  0  0  0  0  0
   -4.0012    0.4021   -0.8632 O   0  0  0  0  0  0  0  0  0  0  0  0
    4.2513   -0.0702    0.5628 O   0  0  0  0  0  0  0  0  0  0  0  0
    0.1939   -2.0065    0.5192 H   0  0  0  0  0  0  0  0  0  0  0  0
    2.6286   -2.0505    0.8916 H   0  0  0  0  0  0  0  0  0  0  0  0
    2.8950    2.0870   -0.2546 H   0  0  0  0  0  0  0  0  0  0  0  0
    0.4681    2.1527   -0.6168 H   0  0  0  0  0  0  0  0  0  0  0  0
   -1.6034    0.8018   -1.1385 H   0  0  0  0  0  0  0  0  0  0  0  0
   -1.9671   -1.0943    1.2753 H   0  0  0  0  0  0  0  0  0  0  0  0
   -4.9789    0.3499   -0.8940 H   0  0  0  0  0  0  0  0  0  0  0  0
    4.6482    0.7957    0.3735 H   0  0  0  0  0  0  0  0  0  0  0  0
  1  2  2  0
  2  3  1  0
  3  4  2  0
  4  5  1  0
  5  6  2  0
  6  7  1  0
  7  8  2  0
  8  9  1  0
  9 10  2  0
  9 11  1  0
  3 12  1  0
  6  1  1  0
  1 13  1  0
  2 14  1  0
  4 15  1  0
  5 16  1  0
  7 17  1  0
  8 18  1  0
 11 19  1  0
 12 20  1  0
M  END
$$$$
syringic acid
     RDKit          3D

 24 24  0  0  0  0  0  0  0  0999 V2000
    3.6924   -0.2086   -0.5195 C   0  0  0  0  0  0  0  0  0  0  0  0
    2.5856   -1.0954   -0.4427 O   0  0  0  0  0  0  0  0  0  0  0  0
    1.3418   -0.5464   -0.2808 C   0  0  0  0  0  0  0  0  0  0  0  0
    1.0731    0.8199   -0.1846 C   0  0  0  0  0  0  0  0  0  0  0  0
   -0.2468    1.2698   -0.0193 C   0  0  0  0  0  0  0  0  0  0  0  0
   -1.3086    0.3550    0.0512 C   0  0  0  0  0  0  0  0  0  0  0  0
   -1.0540   -1.0102   -0.0433 C   0  0  0  0  0  0  0  0  0  0  0  0
    0.2697   -1.4456   -0.2084 C   0  0  0  0  0  0  0  0  0  0  0  0
    0.5110   -2.7961   -0.3008 O   0  0  0  0  0  0  0  0  0  0  0  0
   -1.9915   -2.0109    0.0094 O   0  0  0  0  0  0  0  0  0  0  0  0
   -3.3476   -1.6108    0.1763 C   0  0  0  0  0  0  0  0  0  0  0  0
   -0.5711    2.7136    0.0867 C   0  0  0  0  0  0  0  0  0  0  0  0
   -1.6854    3.1815    0.2306 O   0  0  0  0  0  0  0  0  0  0  0  0
    0.5137    3.5031    0.0076 O   0  0  0  0  0  0  0  0  0  0  0  0
    3.6088    0.4532   -1.3879 H   0  0  0  0  0  0  0  0  0  0  0  0
    4.5965   -0.8117   -0.6472 H   0  0  0  0  0  0  0  0  0  0  0  0
    3.8037    0.3653    0.4064 H   0  0  0  0  0  0  0  0  0  0  0  0
    1.8733    1.5505   -0.2357 H   0  0  0  0  0  0  0  0  0  0  0  0
   -2.3168    0.7376    0.1794 H   0  0  0  0  0  0  0  0  0  0  0  0
   -0.3638   -3.2213   -0.2266 H   0  0  0  0  0  0  0  0  0  0  0  0
   -3.6849   -0.9998   -0.6674 H   0  0  0  0  0  0  0  0  0  0  0  0
   -3.9619   -2.5160    0.1987 H   0  0  0  0  0  0  0  0  0  0  0  0
   -3.4900   -1.0877    1.1276 H   0  0  0  0  0  0  0  0  0  0  0  0
    0.1528    4.4111    0.0912 H   0  0  0  0  0  0  0  0  0  0  0  0
  1  2  1  0
  2  3  1  0
  3  4  2  0
  4  5  1  0
  5  6  2  0
  6  7  1  0
  7  8  2  0
  8  9  1  0
  7 10  1  0
 10 11  1  0
  5 12  1  0
 12 13  2  0
 12 14  1  0
  8  3  1  0
  1 15  1  0
  1 16  1  0
  1 17  1  0
  4 18  1  0
  6 19  1  0
  9 20  1  0
 11 21  1  0
 11 22  1  0
 11 23  1  0
 14 24  1  0
M  END
$$$$
vanillin
     RDKit          3D

 19 19  0  0  0  0  0  0  0  0999 V2000
   -2.6182    0.8528    0.5515 C   0  0  0  0  0  0  0  0  0  0  0  0
   -2.0575   -0.3774    0.1073 O   0  0  0  0  0  0  0  0  0  0  0  0
   -0.7223   -0.3731   -0.2046 C   0  0  0  0  0  0  0  0  0  0  0  0
   -0.2145   -1.6060   -0.6371 C   0  0  0  0  0  0  0  0  0  0  0  0
    1.1203   -1.7656   -0.9906 C   0  0  0  0  0  0  0  0  0  0  0  0
    1.9788   -0.6717   -0.9137 C   0  0  0  0  0  0  0  0  0  0  0  0
    1.4862    0.5655   -0.4837 C   0  0  0  0  0  0  0  0  0  0  0  0
    0.1385    0.7219   -0.1280 C   0  0  0  0  0  0  0  0  0  0  0  0
    2.3923    1.7297   -0.4001 C   0  0  0  0  0  0  0  0  0  0  0  0
    3.5780    1.6576   -0.6963 O   0  0  0  0  0  0  0  0  0  0  0  0
   -1.0365   -2.6966   -0.7218 O   0  0  0  0  0  0  0  0  0  0  0  0
   -2.1480    1.1867    1.4823 H   0  0  0  0  0  0  0  0  0  0  0  0
   -3.6793    0.6814    0.7567 H   0  0  0  0  0  0  0  0  0  0  0  0
   -2.5484    1.6209   -0.2256 H   0  0  0  0  0  0  0  0  0  0  0  0
    1.4860   -2.7331   -1.3223 H   0  0  0  0  0  0  0  0  0  0  0  0
    3.0259   -0.7843   -1.1878 H   0  0  0  0  0  0  0  0  0  0  0  0
   -0.2128    1.6933    0.2013 H   0  0  0  0  0  0  0  0  0  0  0  0
    1.9464    2.6773   -0.0546 H   0  0  0  0  0  0  0  0  0  0  0  0
   -1.9148   -2.3792   -0.4352 H   0  0  0  0  0  0  0  0  0  0  0  0
  1  2  1  0
  2  3  1  0
  3  4  2  0
  4  5  1  0
  5  6  2  0
  6  7  1  0
  7  8  2  0
  7  9  1  0
  9 10  2  0
  4 11  1  0
  8  3  1  0
  1 12  1  0
  1 13  1  0
  1 14  1  0
  5 15  1  0
  6 16  1  0
  8 17  1  0
  9 18  1  0
 11 19  1  0
M  END
$$$$
protocatechuic acid
     RDKit          3D

 17 17  0  0  0  0  0  0  0  0999 V2000
    0.9748   -0.7946    0.5384 C   0  0  0  0  0  0  0  0  0  0  0  0
   -0.1208   -1.6595    0.6132 C   0  0  0  0  0  0  0  0  0  0  0  0
   -1.3882   -1.1965    0.2651 C   0  0  0  0  0  0  0  0  0  0  0  0
   -1.5661    0.1227   -0.1563 C   0  0  0  0  0  0  0  0  0  0  0  0
   -0.4785    0.9899   -0.2332 C   0  0  0  0  0  0  0  0  0  0  0  0
    0.7987    0.5307    0.1155 C   0  0  0  0  0  0  0  0  0  0  0  0
    1.9315    1.4823    0.0211 C   0  0  0  0  0  0  0  0  0  0  0  0
    1.8561    2.6433   -0.3362 O   0  0  0  0  0  0  0  0  0  0  0  0
    3.1060    0.9349    0.3789 O   0  0  0  0  0  0  0  0  0  0  0  0
   -2.8184    0.5546   -0.4928 O   0  0  0  0  0  0  0  0  0  0  0  0
   -2.4695   -2.0288    0.3325 O   0  0  0  0  0  0  0  0  0  0  0  0
    1.9610   -1.1628    0.8117 H   0  0  0  0  0  0  0  0  0  0  0  0
    0.0328   -2.6826    0.9426 H   0  0  0  0  0  0  0  0  0  0  0  0
   -0.6098    2.0178   -0.5603 H   0  0  0  0  0  0  0  0  0  0  0  0
    3.7503    1.6656    0.2690 H   0  0  0  0  0  0  0  0  0  0  0  0
   -2.7765    1.4853   -0.7623 H   0  0  0  0  0  0  0  0  0  0  0  0
   -2.1833   -2.9024    0.6396 H   0  0  0  0  0  0  0  0  0  0  0  0
  1  2  2  0
  2  3  1  0
  3  4  2  0
  4  5  1  0
  5  6  2  0
  6  7  1  0
  7  8  2  0
  7  9  1  0
  4 10  1  0
  3 11  1  0
  6  1  1  0
  1 12  1  0
  2 13  1  0
  5 14  1  0
  9 15  1  0
 10 16  1  0
 11 17  1  0
M  END
$$$$
beta-sitosterol
     RDKit          3D

 80 83  0  0  0  0  0  0  0  0999 V2000
   -7.6054    0.9506    0.3816 C   0  0  0  0  0  0  0  0  0  0  0  0
   -6.3525    0.1697    0.0200 C   0  0  0  0  0  0  0  0  0  0  0  0
   -5.7936   -0.7539    1.1286 C   0  0  2  0  0  0  0  0  0  0  0  0
   -4.4568   -1.4013    0.6591 C   0  0  0  0  0  0  0  0  0  0  0  0
   -3.3332   -0.3870    0.3889 C   0  0  0  0  0  0  0  0  0  0  0  0
   -1.9188   -1.0240    0.2847 C   0  0  1  0  0  0  0  0  0  0  0  0
   -1.8667   -2.0111   -0.8856 C   0  0  0  0  0  0  0  0  0  0  0  0
   -0.8361    0.0906    0.1658 C   0  0  1  0  0  0  0  0  0  0  0  0
   -0.8576    1.0544    1.3913 C   0  0  0  0  0  0  0  0  0  0  0  0
    0.5751    1.5585    1.6025 C   0  0  0  0  0  0  0  0  0  0  0  0
    1.3150    1.0743    0.3663 C   0  0  2  0  0  0  0  0  0  0  0  0
    0.6719   -0.3011    0.0590 C   0  0  2  0  0  0  0  0  0  0  0  0
    1.1677   -0.7006   -1.3438 C   0  0  0  0  0  0  0  0  0  0  0  0
    2.7039   -0.7528   -1.4179 C   0  0  0  0  0  0  0  0  0  0  0  0
    3.3963    0.5562   -0.9570 C   0  0  1  0  0  0  0  0  0  0  0  0
    2.8484    1.0526    0.4088 C   0  0  1  0  0  0  0  0  0  0  0  0
    3.4034    2.4496    0.7235 C   0  0  0  0  0  0  0  0  0  0  0  0
    4.8640    2.5889    0.4353 C   0  0  0  0  0  0  0  0  0  0  0  0
    5.5882    1.7214   -0.2956 C   0  0  0  0  0  0  0  0  0  0  0  0
    4.9772    0.4879   -0.9735 C   0  0  2  0  0  0  0  0  0  0  0  0
    5.4508    0.3884   -2.4628 C   0  0  0  0  0  0  0  0  0  0  0  0
    6.4607    1.4570   -2.8956 C   0  0  0  0  0  0  0  0  0  0  0  0
    7.5939    1.6023   -1.8890 C   0  0  1  0  0  0  0  0  0  0  0  0
    7.0771    1.9585   -0.4881 C   0  0  0  0  0  0  0  0  0  0  0  0
    8.3336    0.3802   -1.8261 O   0  0  0  0  0  0  0  0  0  0  0  0
    5.4852   -0.7539   -0.1987 C   0  0  0  0  0  0  0  0  0  0  0  0
    1.0310   -1.3962    1.0920 C   0  0  0  0  0  0  0  0  0  0  0  0
   -6.7494   -1.8824    1.6318 C   0  0  0  0  0  0  0  0  0  0  0  0
   -7.4536   -2.6508    0.5116 C   0  0  0  0  0  0  0  0  0  0  0  0
   -7.7674   -1.3939    2.6675 C   0  0  0  0  0  0  0  0  0  0  0  0
   -8.4930    0.3142    0.3740 H   0  0  0  0  0  0  0  0  0  0  0  0
   -7.7772    1.7401   -0.3580 H   0  0  0  0  0  0  0  0  0  0  0  0
   -7.5100    1.4256    1.3626 H   0  0  0  0  0  0  0  0  0  0  0  0
   -5.5911    0.9160   -0.2337 H   0  0  0  0  0  0  0  0  0  0  0  0
   -6.5337   -0.4011   -0.8983 H   0  0  0  0  0  0  0  0  0  0  0  0
   -5.5492   -0.1226    1.9943 H   0  0  0  0  0  0  0  0  0  0  0  0
   -4.1090   -2.0958    1.4340 H   0  0  0  0  0  0  0  0  0  0  0  0
   -4.6434   -1.9927   -0.2438 H   0  0  0  0  0  0  0  0  0  0  0  0
   -3.5420    0.1597   -0.5383 H   0  0  0  0  0  0  0  0  0  0  0  0
   -3.3449    0.3466    1.2019 H   0  0  0  0  0  0  0  0  0  0  0  0
   -1.7425   -1.5889    1.2089 H   0  0  0  0  0  0  0  0  0  0  0  0
   -2.6797   -2.7410   -0.8411 H   0  0  0  0  0  0  0  0  0  0  0  0
   -1.9313   -1.4910   -1.8468 H   0  0  0  0  0  0  0  0  0  0  0  0
   -0.9483   -2.6004   -0.8680 H   0  0  0  0  0  0  0  0  0  0  0  0
   -1.0876    0.6919   -0.7215 H   0  0  0  0  0  0  0  0  0  0  0  0
   -1.2049    0.5533    2.3021 H   0  0  0  0  0  0  0  0  0  0  0  0
   -1.5338    1.8951    1.1987 H   0  0  0  0  0  0  0  0  0  0  0  0
    0.6025    2.6486    1.7003 H   0  0  0  0  0  0  0  0  0  0  0  0
    1.0006    1.1340    2.5187 H   0  0  0  0  0  0  0  0  0  0  0  0
    1.0355    1.7677   -0.4454 H   0  0  0  0  0  0  0  0  0  0  0  0
    0.7825   -1.6790   -1.6415 H   0  0  0  0  0  0  0  0  0  0  0  0
    0.8022    0.0154   -2.0911 H   0  0  0  0  0  0  0  0  0  0  0  0
    2.9884   -0.9823   -2.4509 H   0  0  0  0  0  0  0  0  0  0  0  0
    3.0435   -1.6004   -0.8157 H   0  0  0  0  0  0  0  0  0  0  0  0
    3.1054    1.3230   -1.6939 H   0  0  0  0  0  0  0  0  0  0  0  0
    3.1804    0.3756    1.2044 H   0  0  0  0  0  0  0  0  0  0  0  0
    3.2332    2.6720    1.7839 H   0  0  0  0  0  0  0  0  0  0  0  0
    2.8711    3.2176    0.1486 H   0  0  0  0  0  0  0  0  0  0  0  0
    5.3462    3.4594    0.8761 H   0  0  0  0  0  0  0  0  0  0  0  0
    4.6024    0.4594   -3.1542 H   0  0  0  0  0  0  0  0  0  0  0  0
    5.8872   -0.6015   -2.6511 H   0  0  0  0  0  0  0  0  0  0  0  0
    5.9487    2.4190   -3.0224 H   0  0  0  0  0  0  0  0  0  0  0  0
    6.8622    1.1760   -3.8767 H   0  0  0  0  0  0  0  0  0  0  0  0
    8.2959    2.3750   -2.2224 H   0  0  0  0  0  0  0  0  0  0  0  0
    7.2931    3.0210   -0.3136 H   0  0  0  0  0  0  0  0  0  0  0  0
    7.6287    1.3968    0.2758 H   0  0  0  0  0  0  0  0  0  0  0  0
    8.6533    0.1859   -2.7236 H   0  0  0  0  0  0  0  0  0  0  0  0
    5.1085   -0.7743    0.8294 H   0  0  0  0  0  0  0  0  0  0  0  0
    5.1876   -1.6889   -0.6840 H   0  0  0  0  0  0  0  0  0  0  0  0
    6.5786   -0.7797   -0.1388 H   0  0  0  0  0  0  0  0  0  0  0  0
    0.6169   -2.3653    0.7961 H   0  0  0  0  0  0  0  0  0  0  0  0
    0.6403   -1.1720    2.0897 H   0  0  0  0  0  0  0  0  0  0  0  0
    2.1093   -1.5377    1.2016 H   0  0  0  0  0  0  0  0  0  0  0  0
   -6.1303   -2.6132    2.1710 H   0  0  0  0  0  0  0  0  0  0  0  0
   -8.0092   -3.5007    0.9233 H   0  0  0  0  0  0  0  0  0  0  0  0
   -8.1694   -2.0240   -0.0280 H   0  0  0  0  0  0  0  0  0  0  0  0
   -6.7351   -3.0497   -0.2107 H   0  0  0  0  0  0  0  0  0  0  0  0
   -8.5590   -0.7837    2.2297 H   0  0  0  0  0  0  0  0  0  0  0  0
   -7.2778   -0.8115    3.4548 H   0  0  0  0  0  0  0  0  0  0  0  0
   -8.2543   -2.2497    3.1490 H   0  0  0  0  0  0  0  0  0  0  0  0
  1  2  1  0
  2  3  1  0
  3  4  1  0
  4  5  1  0
  5  6  1  0
  6  7  1  0
  6  8  1  0
  8  9  1  0
  9 10  1  0
 10 11  1  0
 11 12  1  0
 12 13  1  0
 13 14  1  0
 14 15  1  0
 15 16  1  0
 16 17  1  0
 17 18  1  0
 18 19  2  0
 19 20  1  0
 20 21  1  0
 21 22  1  0
 22 23  1  0
 23 24  1  0
 23 25  1  0
 20 26  1  1
 12 27  1  1
  3 28  1  0
 28 29  1  0
 28 30  1  0
 12  8  1  0
 16 11  1  0
 20 15  1  0
 24 19  1  0
  1 31  1  0
  1 32  1  0
  1 33  1  0
  2 34  1  0
  2 35  1  0
  3 36  1  1
  4 37  1  0
  4 38  1  0
  5 39  1  0
  5 40  1  0
  6 41  1  1
  7 42  1  0
  7 43  1  0
  7 44  1  0
  8 45  1  6
  9 46  1  0
  9 47  1  0
 10 48  1  0
 10 49  1  0
 11 50  1  6
 13 51  1  0
 13 52  1  0
 14 53  1  0
 14 54  1  0
 15 55  1  6
 16 56  1  1
 17 57  1  0
 17 58  1  0
 18 59  1  0
 21 60  1  0
 21 61  1  0
 22 62  1  0
 22 63  1  0
 23 64  1  6
 24 65  1  0
 24 66  1  0
 25 67  1  0
 26 68  1  0
 26 69  1  0
 26 70  1  0
 27 71  1  0
 27 72  1  0
 27 73  1  0
 28 74  1  0
 29 75  1  0
 29 76  1  0
 29 77  1  0
 30 78  1  0
 30 79  1  0
 30 80  1  0
M  END
$$$$
stigmasterol
     RDKit          3D

 78 81  0  0  0  0  0  0  0  0999 V2000
    6.7568   -2.0617    1.6780 C   0  0  0  0  0  0  0  0  0  0  0  0
    7.0962   -1.1811    0.4789 C   0  0  0  0  0  0  0  0  0  0  0  0
    6.0420   -0.0875    0.1869 C   0  0  2  0  0  0  0  0  0  0  0  0
    4.6884   -0.7297   -0.0492 C   0  0  0  0  0  0  0  0  0  0  0  0
    3.6237   -0.5490    0.7501 C   0  0  0  0  0  0  0  0  0  0  0  0
    2.2742   -1.2047    0.5257 C   0  0  1  0  0  0  0  0  0  0  0  0
    2.0310   -2.1763    1.6819 C   0  0  0  0  0  0  0  0  0  0  0  0
    1.1681   -0.1268    0.3859 C   0  0  1  0  0  0  0  0  0  0  0  0
    1.4496    0.8439   -0.8006 C   0  0  0  0  0  0  0  0  0  0  0  0
    0.0890    1.3096   -1.3355 C   0  0  0  0  0  0  0  0  0  0  0  0
   -0.9054    0.7825   -0.3119 C   0  0  2  0  0  0  0  0  0  0  0  0
   -0.3039   -0.5741    0.1306 C   0  0  2  0  0  0  0  0  0  0  0  0
   -1.0954   -1.0172    1.3734 C   0  0  0  0  0  0  0  0  0  0  0  0
   -2.6061   -1.1194    1.0940 C   0  0  0  0  0  0  0  0  0  0  0  0
   -3.2193    0.1666    0.4843 C   0  0  1  0  0  0  0  0  0  0  0  0
   -2.3816    0.6995   -0.7172 C   0  0  1  0  0  0  0  0  0  0  0  0
   -2.9061    2.0627   -1.1991 C   0  0  0  0  0  0  0  0  0  0  0  0
   -4.3835    2.2606   -1.0464 C   0  0  0  0  0  0  0  0  0  0  0  0
   -5.2229    1.3919   -0.4509 C   0  0  0  0  0  0  0  0  0  0  0  0
   -4.7463    0.0440    0.0983 C   0  0  2  0  0  0  0  0  0  0  0  0
   -5.5894   -0.2850    1.3560 C   0  0  0  0  0  0  0  0  0  0  0  0
   -7.1026   -0.3567    1.1066 C   0  0  0  0  0  0  0  0  0  0  0  0
   -7.6420    0.7027    0.1418 C   0  0  1  0  0  0  0  0  0  0  0  0
   -6.6481    1.8263   -0.1676 C   0  0  0  0  0  0  0  0  0  0  0  0
   -8.0772    0.0617   -1.0597 O   0  0  0  0  0  0  0  0  0  0  0  0
   -4.9571   -1.0553   -0.9712 C   0  0  0  0  0  0  0  0  0  0  0  0
   -0.3672   -1.6709   -0.9595 C   0  0  0  0  0  0  0  0  0  0  0  0
    6.4418    0.8071   -1.0274 C   0  0  0  0  0  0  0  0  0  0  0  0
    5.4019    1.9062   -1.2941 C   0  0  0  0  0  0  0  0  0  0  0  0
    7.8113    1.4724   -0.8400 C   0  0  0  0  0  0  0  0  0  0  0  0
    6.5759   -1.4553    2.5712 H   0  0  0  0  0  0  0  0  0  0  0  0
    7.5906   -2.7383    1.8921 H   0  0  0  0  0  0  0  0  0  0  0  0
    5.8733   -2.6792    1.4909 H   0  0  0  0  0  0  0  0  0  0  0  0
    8.0636   -0.7139    0.6920 H   0  0  0  0  0  0  0  0  0  0  0  0
    7.2372   -1.8168   -0.4042 H   0  0  0  0  0  0  0  0  0  0  0  0
    5.9836    0.5590    1.0740 H   0  0  0  0  0  0  0  0  0  0  0  0
    4.6031   -1.3777   -0.9200 H   0  0  0  0  0  0  0  0  0  0  0  0
    3.7134    0.0939    1.6244 H   0  0  0  0  0  0  0  0  0  0  0  0
    2.3204   -1.7932   -0.3996 H   0  0  0  0  0  0  0  0  0  0  0  0
    2.9136   -2.7994    1.8696 H   0  0  0  0  0  0  0  0  0  0  0  0
    1.2116   -2.8628    1.4556 H   0  0  0  0  0  0  0  0  0  0  0  0
    1.7930   -1.6460    2.6105 H   0  0  0  0  0  0  0  0  0  0  0  0
    1.1773    0.4797    1.3054 H   0  0  0  0  0  0  0  0  0  0  0  0
    2.0099    0.3566   -1.6068 H   0  0  0  0  0  0  0  0  0  0  0  0
    2.0428    1.6992   -0.4577 H   0  0  0  0  0  0  0  0  0  0  0  0
   -0.0963    0.8891   -2.3302 H   0  0  0  0  0  0  0  0  0  0  0  0
    0.0495    2.3999   -1.4261 H   0  0  0  0  0  0  0  0  0  0  0  0
   -0.8554    1.4744    0.5461 H   0  0  0  0  0  0  0  0  0  0  0  0
   -0.7500   -1.9881    1.7394 H   0  0  0  0  0  0  0  0  0  0  0  0
   -0.9375   -0.3045    2.1932 H   0  0  0  0  0  0  0  0  0  0  0  0
   -3.1007   -1.3501    2.0440 H   0  0  0  0  0  0  0  0  0  0  0  0
   -2.7839   -1.9784    0.4406 H   0  0  0  0  0  0  0  0  0  0  0  0
   -3.1495    0.9281    1.2784 H   0  0  0  0  0  0  0  0  0  0  0  0
   -2.4681    0.0069   -1.5605 H   0  0  0  0  0  0  0  0  0  0  0  0
   -2.6332    2.2047   -2.2517 H   0  0  0  0  0  0  0  0  0  0  0  0
   -2.4172    2.8699   -0.6386 H   0  0  0  0  0  0  0  0  0  0  0  0
   -4.7586    3.2255   -1.3829 H   0  0  0  0  0  0  0  0  0  0  0  0
   -5.4017    0.4750    2.1275 H   0  0  0  0  0  0  0  0  0  0  0  0
   -5.2825   -1.2420    1.7934 H   0  0  0  0  0  0  0  0  0  0  0  0
   -7.6006   -0.2419    2.0779 H   0  0  0  0  0  0  0  0  0  0  0  0
   -7.3640   -1.3616    0.7517 H   0  0  0  0  0  0  0  0  0  0  0  0
   -8.5463    1.1445    0.5770 H   0  0  0  0  0  0  0  0  0  0  0  0
   -6.6127    2.4876    0.7090 H   0  0  0  0  0  0  0  0  0  0  0  0
   -7.0239    2.4219   -1.0092 H   0  0  0  0  0  0  0  0  0  0  0  0
   -8.3084    0.7536   -1.7022 H   0  0  0  0  0  0  0  0  0  0  0  0
   -4.3575   -0.8842   -1.8698 H   0  0  0  0  0  0  0  0  0  0  0  0
   -5.9910   -1.1181   -1.3154 H   0  0  0  0  0  0  0  0  0  0  0  0
   -4.7034   -2.0464   -0.5823 H   0  0  0  0  0  0  0  0  0  0  0  0
   -1.3855   -1.8658   -1.3058 H   0  0  0  0  0  0  0  0  0  0  0  0
    0.2236   -1.4142   -1.8445 H   0  0  0  0  0  0  0  0  0  0  0  0
    0.0197   -2.6219   -0.5788 H   0  0  0  0  0  0  0  0  0  0  0  0
    6.4994    0.1801   -1.9276 H   0  0  0  0  0  0  0  0  0  0  0  0
    5.7244    2.5578   -2.1137 H   0  0  0  0  0  0  0  0  0  0  0  0
    5.2492    2.5302   -0.4069 H   0  0  0  0  0  0  0  0  0  0  0  0
    4.4368    1.4831   -1.5870 H   0  0  0  0  0  0  0  0  0  0  0  0
    8.6195    0.7353   -0.8468 H   0  0  0  0  0  0  0  0  0  0  0  0
    8.0200    2.1741   -1.6552 H   0  0  0  0  0  0  0  0  0  0  0  0
    7.8564    2.0277    0.1028 H   0  0  0  0  0  0  0  0  0  0  0  0
  1  2  1  0
  2  3  1  0
  3  4  1  0
  4  5  2  0
  5  6  1  0
  6  7  1  0
  6  8  1  0
  8  9  1  0
  9 10  1  0
 10 11  1  0
 11 12  1  0
 12 13  1  0
 13 14  1  0
 14 15  1  0
 15 16  1  0
 16 17  1  0
 17 18  1  0
 18 19  2  0
 19 20  1  0
 20 21  1  0
 21 22  1  0
 22 23  1  0
 23 24  1  0
 23 25  1  0
 20 26  1  6
 12 27  1  6
  3 28  1  0
 28 29  1  0
 28 30  1  0
 12  8  1  0
 16 11  1  0
 20 15  1  0
 24 19  1  0
  1 31  1  0
  1 32  1  0
  1 33  1  0
  2 34  1  0
  2 35  1  0
  3 36  1  1
  4 37  1  0
  5 38  1  0
  6 39  1  6
  7 40  1  0
  7 41  1  0
  7 42  1  0
  8 43  1  1
  9 44  1  0
  9 45  1  0
 10 46  1  0
 10 47  1  0
 11 48  1  1
 13 49  1  0
 13 50  1  0
 14 51  1  0
 14 52  1  0
 15 53  1  1
 16 54  1  6
 17 55  1  0
 17 56  1  0
 18 57  1  0
 21 58  1  0
 21 59  1  0
 22 60  1  0
 22 61  1  0
 23 62  1  1
 24 63  1  0
 24 64  1  0
 25 65  1  0
 26 66  1  0
 26 67  1  0
 26 68  1  0
 27 69  1  0
 27 70  1  0
 27 71  1  0
 28 72  1  0
 29 73  1  0
 29 74  1  0
 29 75  1  0
 30 76  1  0
 30 77  1  0
 30 78  1  0
M  END
$$$$
campesterol
     RDKit          3D

 77 80  0  0  0  0  0  0  0  0999 V2000
   -3.0156   -2.6782   -0.1412 C   0  0  0  0  0  0  0  0  0  0  0  0
   -2.7853   -1.2401    0.3357 C   0  0  2  0  0  0  0  0  0  0  0  0
   -3.2118   -0.2311   -0.7487 C   0  0  0  0  0  0  0  0  0  0  0  0
   -4.6912   -0.2309   -1.1730 C   0  0  0  0  0  0  0  0  0  0  0  0
   -5.7648    0.2458   -0.1605 C   0  0  1  0  0  0  0  0  0  0  0  0
   -6.1884   -0.8835    0.7883 C   0  0  0  0  0  0  0  0  0  0  0  0
   -5.4051    1.5597    0.5903 C   0  0  0  0  0  0  0  0  0  0  0  0
   -5.1710    2.7232   -0.3828 C   0  0  0  0  0  0  0  0  0  0  0  0
   -6.4929    1.9777    1.5892 C   0  0  0  0  0  0  0  0  0  0  0  0
   -1.3676   -0.9125    0.8923 C   0  0  1  0  0  0  0  0  0  0  0  0
   -0.9725   -1.7730    2.1273 C   0  0  0  0  0  0  0  0  0  0  0  0
    0.5625   -1.8127    2.1648 C   0  0  0  0  0  0  0  0  0  0  0  0
    0.9798   -0.7751    1.1318 C   0  0  2  0  0  0  0  0  0  0  0  0
   -0.0813   -0.9194    0.0103 C   0  0  2  0  0  0  0  0  0  0  0  0
    0.1044    0.2939   -0.9172 C   0  0  0  0  0  0  0  0  0  0  0  0
    1.5362    0.3810   -1.4772 C   0  0  0  0  0  0  0  0  0  0  0  0
    2.6421    0.3712   -0.3876 C   0  0  1  0  0  0  0  0  0  0  0  0
    2.4288   -0.7930    0.6292 C   0  0  1  0  0  0  0  0  0  0  0  0
    3.4152   -0.6915    1.8033 C   0  0  0  0  0  0  0  0  0  0  0  0
    4.7872   -0.2393    1.4164 C   0  0  0  0  0  0  0  0  0  0  0  0
    5.1165    0.2408    0.2051 C   0  0  0  0  0  0  0  0  0  0  0  0
    4.1166    0.3697   -0.9546 C   0  0  2  0  0  0  0  0  0  0  0  0
    4.4210    1.6884   -1.7401 C   0  0  0  0  0  0  0  0  0  0  0  0
    5.0505    2.7754   -0.8631 C   0  0  0  0  0  0  0  0  0  0  0  0
    6.4131    2.3249   -0.3183 C   0  0  1  0  0  0  0  0  0  0  0  0
    6.4885    0.8111   -0.0557 C   0  0  0  0  0  0  0  0  0  0  0  0
    7.4177    2.6865   -1.2701 O   0  0  0  0  0  0  0  0  0  0  0  0
    4.3477   -0.8166   -1.9213 C   0  0  0  0  0  0  0  0  0  0  0  0
    0.0577   -2.2238   -0.8024 C   0  0  0  0  0  0  0  0  0  0  0  0
   -2.6099   -2.8517   -1.1406 H   0  0  0  0  0  0  0  0  0  0  0  0
   -4.0876   -2.8936   -0.1983 H   0  0  0  0  0  0  0  0  0  0  0  0
   -2.5910   -3.4224    0.5350 H   0  0  0  0  0  0  0  0  0  0  0  0
   -3.4448   -1.0964    1.1973 H   0  0  0  0  0  0  0  0  0  0  0  0
   -2.9244    0.7797   -0.4410 H   0  0  0  0  0  0  0  0  0  0  0  0
   -2.6349   -0.4426   -1.6567 H   0  0  0  0  0  0  0  0  0  0  0  0
   -4.7607    0.4297   -2.0486 H   0  0  0  0  0  0  0  0  0  0  0  0
   -4.9648   -1.2207   -1.5581 H   0  0  0  0  0  0  0  0  0  0  0  0
   -6.6584    0.4572   -0.7671 H   0  0  0  0  0  0  0  0  0  0  0  0
   -5.4934   -1.0094    1.6211 H   0  0  0  0  0  0  0  0  0  0  0  0
   -6.2757   -1.8376    0.2590 H   0  0  0  0  0  0  0  0  0  0  0  0
   -7.1746   -0.6750    1.2178 H   0  0  0  0  0  0  0  0  0  0  0  0
   -4.4842    1.4038    1.1655 H   0  0  0  0  0  0  0  0  0  0  0  0
   -4.9351    3.6435    0.1629 H   0  0  0  0  0  0  0  0  0  0  0  0
   -6.0617    2.9126   -0.9917 H   0  0  0  0  0  0  0  0  0  0  0  0
   -4.3345    2.5297   -1.0595 H   0  0  0  0  0  0  0  0  0  0  0  0
   -6.2503    2.9423    2.0488 H   0  0  0  0  0  0  0  0  0  0  0  0
   -7.4669    2.0734    1.0977 H   0  0  0  0  0  0  0  0  0  0  0  0
   -6.5872    1.2531    2.4038 H   0  0  0  0  0  0  0  0  0  0  0  0
   -1.4605    0.1157    1.2808 H   0  0  0  0  0  0  0  0  0  0  0  0
   -1.3581   -2.7942    2.0932 H   0  0  0  0  0  0  0  0  0  0  0  0
   -1.3690   -1.3134    3.0403 H   0  0  0  0  0  0  0  0  0  0  0  0
    0.9414   -1.5784    3.1647 H   0  0  0  0  0  0  0  0  0  0  0  0
    0.9264   -2.8112    1.8977 H   0  0  0  0  0  0  0  0  0  0  0  0
    0.8352    0.2071    1.6135 H   0  0  0  0  0  0  0  0  0  0  0  0
   -0.1188    1.2224   -0.3761 H   0  0  0  0  0  0  0  0  0  0  0  0
   -0.5898    0.2529   -1.7618 H   0  0  0  0  0  0  0  0  0  0  0  0
    1.6835   -0.4442   -2.1801 H   0  0  0  0  0  0  0  0  0  0  0  0
    1.5976    1.2988   -2.0704 H   0  0  0  0  0  0  0  0  0  0  0  0
    2.5158    1.3095    0.1756 H   0  0  0  0  0  0  0  0  0  0  0  0
    2.6204   -1.7498    0.1321 H   0  0  0  0  0  0  0  0  0  0  0  0
    3.0386    0.0130    2.5557 H   0  0  0  0  0  0  0  0  0  0  0  0
    3.4904   -1.6683    2.2963 H   0  0  0  0  0  0  0  0  0  0  0  0
    5.5313   -0.2664    2.2100 H   0  0  0  0  0  0  0  0  0  0  0  0
    3.5211    2.0933   -2.2101 H   0  0  0  0  0  0  0  0  0  0  0  0
    5.1125    1.4837   -2.5693 H   0  0  0  0  0  0  0  0  0  0  0  0
    5.1604    3.6957   -1.4489 H   0  0  0  0  0  0  0  0  0  0  0  0
    4.3733    2.9993   -0.0298 H   0  0  0  0  0  0  0  0  0  0  0  0
    6.6260    2.8835    0.6006 H   0  0  0  0  0  0  0  0  0  0  0  0
    6.9461    0.2917   -0.9070 H   0  0  0  0  0  0  0  0  0  0  0  0
    7.1700    0.6323    0.7855 H   0  0  0  0  0  0  0  0  0  0  0  0
    8.2786    2.4383   -0.8919 H   0  0  0  0  0  0  0  0  0  0  0  0
    3.7428   -0.7215   -2.8287 H   0  0  0  0  0  0  0  0  0  0  0  0
    5.3924   -0.8684   -2.2507 H   0  0  0  0  0  0  0  0  0  0  0  0
    4.1166   -1.7812   -1.4592 H   0  0  0  0  0  0  0  0  0  0  0  0
    1.0641   -2.3703   -1.2031 H   0  0  0  0  0  0  0  0  0  0  0  0
   -0.6122   -2.2112   -1.6676 H   0  0  0  0  0  0  0  0  0  0  0  0
   -0.1736   -3.1134   -0.2091 H   0  0  0  0  0  0  0  0  0  0  0  0
  1  2  1  0
  2  3  1  0
  3  4  1  0
  4  5  1  0
  5  6  1  0
  5  7  1  0
  7  8  1  0
  7  9  1  0
  2 10  1  0
 10 11  1  0
 11 12  1  0
 12 13  1  0
 13 14  1  0
 14 15  1  0
 15 16  1  0
 16 17  1  0
 17 18  1  0
 18 19  1  0
 19 20  1  0
 20 21  2  0
 21 22  1  0
 22 23  1  0
 23 24  1  0
 24 25  1  0
 25 26  1  0
 25 27  1  0
 22 28  1  6
 14 29  1  6
 14 10  1  0
 18 13  1  0
 22 17  1  0
 26 21  1  0
  1 30  1  0
  1 31  1  0
  1 32  1  0
  2 33  1  1
  3 34  1  0
  3 35  1  0
  4 36  1  0
  4 37  1  0
  5 38  1  6
  6 39  1  0
  6 40  1  0
  6 41  1  0
  7 42  1  0
  8 43  1  0
  8 44  1  0
  8 45  1  0
  9 46  1  0
  9 47  1  0
  9 48  1  0
 10 49  1  1
 11 50  1  0
 11 51  1  0
 12 52  1  0
 12 53  1  0
 13 54  1  1
 15 55  1  0
 15 56  1  0
 16 57  1  0
 16 58  1  0
 17 59  1  1
 18 60  1  6
 19 61  1  0
 19 62  1  0
 20 63  1  0
 23 64  1  0
 23 65  1  0
 24 66  1  0
 24 67  1  0
 25 68  1  1
 26 69  1  0
 26 70  1  0
 27 71  1  0
 28 72  1  0
 28 73  1  0
 28 74  1  0
 29 75  1  0
 29 76  1  0
 29 77  1  0
M  END
$$$$
lupeol
     RDKit          3D

 81 85  0  0  0  0  0  0  0  0999 V2000
   -5.2250   -1.0176   -3.2226 C   0  0  0  0  0  0  0  0  0  0  0  0
   -4.5841   -0.0469   -2.2631 C   0  0  0  0  0  0  0  0  0  0  0  0
   -4.2028    1.1694   -2.6886 C   0  0  0  0  0  0  0  0  0  0  0  0
   -4.4395   -0.5598   -0.8381 C   0  0  2  0  0  0  0  0  0  0  0  0
   -5.7691   -0.3588   -0.0582 C   0  0  0  0  0  0  0  0  0  0  0  0
   -5.3916    0.1403    1.3469 C   0  0  0  0  0  0  0  0  0  0  0  0
   -3.9252   -0.2735    1.5156 C   0  0  1  0  0  0  0  0  0  0  0  0
   -3.3802    0.0623    0.1030 C   0  0  1  0  0  0  0  0  0  0  0  0
   -1.8946   -0.3464   -0.0184 C   0  0  1  0  0  0  0  0  0  0  0  0
   -1.3193   -0.2178   -1.4343 C   0  0  0  0  0  0  0  0  0  0  0  0
    0.1339   -0.6932   -1.5216 C   0  0  0  0  0  0  0  0  0  0  0  0
    1.0571    0.0130   -0.5028 C   0  0  2  0  0  0  0  0  0  0  0  0
    2.6134   -0.2254   -0.7527 C   0  0  1  0  0  0  0  0  0  0  0  0
    2.9750    0.3443   -2.1723 C   0  0  0  0  0  0  0  0  0  0  0  0
    4.2580    1.1802   -2.2435 C   0  0  0  0  0  0  0  0  0  0  0  0
    5.3854    0.6421   -1.3706 C   0  0  1  0  0  0  0  0  0  0  0  0
    4.9879    0.5974    0.1416 C   0  0  0  0  0  0  0  0  0  0  0  0
    3.4158    0.5853    0.3238 C   0  0  2  0  0  0  0  0  0  0  0  0
    2.9509    0.2591    1.7569 C   0  0  0  0  0  0  0  0  0  0  0  0
    1.4657    0.5802    1.9490 C   0  0  0  0  0  0  0  0  0  0  0  0
    0.5174   -0.1690    0.9733 C   0  0  1  0  0  0  0  0  0  0  0  0
   -1.0025    0.4185    1.0482 C   0  0  2  0  0  0  0  0  0  0  0  0
   -1.6331    0.2645    2.4793 C   0  0  0  0  0  0  0  0  0  0  0  0
   -3.1484    0.5447    2.5555 C   0  0  0  0  0  0  0  0  0  0  0  0
   -1.0220    1.9591    0.7578 C   0  0  0  0  0  0  0  0  0  0  0  0
    0.5238   -1.6665    1.4050 C   0  0  0  0  0  0  0  0  0  0  0  0
    5.5222    1.9127    0.7811 C   0  0  0  0  0  0  0  0  0  0  0  0
    5.6975   -0.5570    0.8795 C   0  0  0  0  0  0  0  0  0  0  0  0
    5.7695   -0.6277   -1.8905 O   0  0  0  0  0  0  0  0  0  0  0  0
    2.9739   -1.7290   -0.7554 C   0  0  0  0  0  0  0  0  0  0  0  0
   -3.8858   -1.7740    1.9049 C   0  0  0  0  0  0  0  0  0  0  0  0
   -6.2249   -1.2953   -2.8739 H   0  0  0  0  0  0  0  0  0  0  0  0
   -4.6188   -1.9257   -3.3039 H   0  0  0  0  0  0  0  0  0  0  0  0
   -5.3297   -0.5978   -4.2287 H   0  0  0  0  0  0  0  0  0  0  0  0
   -4.3385    1.4742   -3.7225 H   0  0  0  0  0  0  0  0  0  0  0  0
   -3.7529    1.9052   -2.0321 H   0  0  0  0  0  0  0  0  0  0  0  0
   -4.2247   -1.6354   -0.9039 H   0  0  0  0  0  0  0  0  0  0  0  0
   -6.3051   -1.3133    0.0067 H   0  0  0  0  0  0  0  0  0  0  0  0
   -6.4470    0.3575   -0.5368 H   0  0  0  0  0  0  0  0  0  0  0  0
   -5.4940    1.2323    1.3813 H   0  0  0  0  0  0  0  0  0  0  0  0
   -6.0518   -0.2738    2.1160 H   0  0  0  0  0  0  0  0  0  0  0  0
   -3.4441    1.1478   -0.0315 H   0  0  0  0  0  0  0  0  0  0  0  0
   -1.8602   -1.4164    0.2066 H   0  0  0  0  0  0  0  0  0  0  0  0
   -1.3864    0.8158   -1.7895 H   0  0  0  0  0  0  0  0  0  0  0  0
   -1.9043   -0.8283   -2.1308 H   0  0  0  0  0  0  0  0  0  0  0  0
    0.1522   -1.7782   -1.3787 H   0  0  0  0  0  0  0  0  0  0  0  0
    0.4804   -0.5197   -2.5459 H   0  0  0  0  0  0  0  0  0  0  0  0
    0.9517    1.0837   -0.7175 H   0  0  0  0  0  0  0  0  0  0  0  0
    3.0427   -0.4764   -2.8988 H   0  0  0  0  0  0  0  0  0  0  0  0
    2.1729    0.9906   -2.5505 H   0  0  0  0  0  0  0  0  0  0  0  0
    4.5829    1.2150   -3.2910 H   0  0  0  0  0  0  0  0  0  0  0  0
    4.0330    2.2143   -1.9543 H   0  0  0  0  0  0  0  0  0  0  0  0
    6.2578    1.2922   -1.5123 H   0  0  0  0  0  0  0  0  0  0  0  0
    3.1041    1.6317    0.1687 H   0  0  0  0  0  0  0  0  0  0  0  0
    3.5082    0.8636    2.4810 H   0  0  0  0  0  0  0  0  0  0  0  0
    3.1556   -0.7827    2.0181 H   0  0  0  0  0  0  0  0  0  0  0  0
    1.3663    1.6628    1.8306 H   0  0  0  0  0  0  0  0  0  0  0  0
    1.1922    0.3604    2.9881 H   0  0  0  0  0  0  0  0  0  0  0  0
   -1.1251    0.9333    3.1853 H   0  0  0  0  0  0  0  0  0  0  0  0
   -1.4760   -0.7425    2.8690 H   0  0  0  0  0  0  0  0  0  0  0  0
   -3.3321    1.6161    2.4144 H   0  0  0  0  0  0  0  0  0  0  0  0
   -3.5070    0.3135    3.5664 H   0  0  0  0  0  0  0  0  0  0  0  0
   -0.4598    2.5202    1.5097 H   0  0  0  0  0  0  0  0  0  0  0  0
   -0.6209    2.2254   -0.2211 H   0  0  0  0  0  0  0  0  0  0  0  0
   -2.0293    2.3813    0.7892 H   0  0  0  0  0  0  0  0  0  0  0  0
   -0.0811   -2.3077    0.7619 H   0  0  0  0  0  0  0  0  0  0  0  0
    1.5199   -2.1009    1.4184 H   0  0  0  0  0  0  0  0  0  0  0  0
    0.1654   -1.7976    2.4293 H   0  0  0  0  0  0  0  0  0  0  0  0
    5.3020    1.9681    1.8517 H   0  0  0  0  0  0  0  0  0  0  0  0
    5.0848    2.7966    0.3035 H   0  0  0  0  0  0  0  0  0  0  0  0
    6.6111    1.9872    0.6748 H   0  0  0  0  0  0  0  0  0  0  0  0
    6.7822   -0.5079    0.7264 H   0  0  0  0  0  0  0  0  0  0  0  0
    5.3638   -1.5394    0.5383 H   0  0  0  0  0  0  0  0  0  0  0  0
    5.5342   -0.5102    1.9614 H   0  0  0  0  0  0  0  0  0  0  0  0
    6.6368   -0.8533   -1.5144 H   0  0  0  0  0  0  0  0  0  0  0  0
    3.1084   -2.1407    0.2438 H   0  0  0  0  0  0  0  0  0  0  0  0
    3.9095   -1.9289   -1.2807 H   0  0  0  0  0  0  0  0  0  0  0  0
    2.2230   -2.3339   -1.2698 H   0  0  0  0  0  0  0  0  0  0  0  0
   -4.3347   -1.9185    2.8951 H   0  0  0  0  0  0  0  0  0  0  0  0
   -4.4456   -2.4075    1.2103 H   0  0  0  0  0  0  0  0  0  0  0  0
   -2.8713   -2.1773    1.9537 H   0  0  0  0  0  0  0  0  0  0  0  0
  1  2  1  0
  2  3  2  0
  2  4  1  0
  4  5  1  0
  5  6  1  0
  6  7  1  0
  7  8  1  0
  8  9  1  0
  9 10  1  0
 10 11  1  0
 11 12  1  0
 12 13  1  0
 13 14  1  0
 14 15  1  0
 15 16  1  0
 16 17  1  0
 17 18  1  0
 18 19  1  0
 19 20  1  0
 20 21  1  0
 21 22  1  0
 22 23  1  0
 23 24  1  0
 22 25  1  6
 21 26  1  1
 17 27  1  0
 17 28  1  0
 16 29  1  0
 13 30  1  6
  7 31  1  1
  8  4  1  0
 24  7  1  0
 22  9  1  0
 21 12  1  0
 18 13  1  0
  1 32  1  0
  1 33  1  0
  1 34  1  0
  3 35  1  0
  3 36  1  0
  4 37  1  6
  5 38  1  0
  5 39  1  0
  6 40  1  0
  6 41  1  0
  8 42  1  1
  9 43  1  1
 10 44  1  0
 10 45  1  0
 11 46  1  0
 11 47  1  0
 12 48  1  6
 14 49  1  0
 14 50  1  0
 15 51  1  0
 15 52  1  0
 16 53  1  1
 18 54  1  6
 19 55  1  0
 19 56  1  0
 20 57  1  0
 20 58  1  0
 23 59  1  0
 23 60  1  0
 24 61  1  0
 24 62  1  0
 25 63  1  0
 25 64  1  0
 25 65  1  0
 26 66  1  0
 26 67  1  0
 26 68  1  0
 27 69  1  0
 27 70  1  0
 27 71  1  0
 28 72  1  0
 28 73  1  0
 28 74  1  0
 29 75  1  0
 30 76  1  0
 30 77  1  0
 30 78  1  0
 31 79  1  0
 31 80  1  0
 31 81  1  0
M  END
$$$$
oleanolic acid
     RDKit          3D

 81 85  0  0  0  0  0  0  0  0999 V2000
   -3.3895    1.5723    0.9160 C   0  0  0  0  0  0  0  0  0  0  0  0
   -2.9425    0.5908   -0.1973 C   0  0  2  0  0  0  0  0  0  0  0  0
   -3.4966    1.1347   -1.5494 C   0  0  0  0  0  0  0  0  0  0  0  0
   -5.0111    1.0120   -1.7026 C   0  0  0  0  0  0  0  0  0  0  0  0
   -5.5024   -0.4162   -1.4881 C   0  0  1  0  0  0  0  0  0  0  0  0
   -5.0569   -1.0391   -0.1322 C   0  0  0  0  0  0  0  0  0  0  0  0
   -3.4996   -0.8664    0.0080 C   0  0  2  0  0  0  0  0  0  0  0  0
   -2.8813   -1.5145    1.2637 C   0  0  0  0  0  0  0  0  0  0  0  0
   -1.3649   -1.6584    1.1099 C   0  0  0  0  0  0  0  0  0  0  0  0
   -0.6065   -0.3345    0.8113 C   0  0  2  0  0  0  0  0  0  0  0  0
   -1.3561    0.4738   -0.3158 C   0  0  2  0  0  0  0  0  0  0  0  0
   -0.6354    1.8082   -0.6172 C   0  0  0  0  0  0  0  0  0  0  0  0
    0.8603    1.7577   -0.5159 C   0  0  0  0  0  0  0  0  0  0  0  0
    1.5940    0.7035   -0.1043 C   0  0  0  0  0  0  0  0  0  0  0  0
    0.9215   -0.6242    0.2999 C   0  0  1  0  0  0  0  0  0  0  0  0
    1.7310   -1.3789    1.3963 C   0  0  0  0  0  0  0  0  0  0  0  0
    3.2534   -1.3161    1.2364 C   0  0  0  0  0  0  0  0  0  0  0  0
    3.7659    0.1384    1.1720 C   0  0  2  0  0  0  0  0  0  0  0  0
    3.1203    0.8596   -0.0411 C   0  0  1  0  0  0  0  0  0  0  0  0
    3.7590    0.4764   -1.3973 C   0  0  0  0  0  0  0  0  0  0  0  0
    5.2972    0.5895   -1.4302 C   0  0  0  0  0  0  0  0  0  0  0  0
    5.8875   -0.2241   -0.2650 C   0  0  0  0  0  0  0  0  0  0  0  0
    5.3130    0.1703    1.0926 C   0  0  0  0  0  0  0  0  0  0  0  0
    5.8136    0.0025   -2.7588 C   0  0  0  0  0  0  0  0  0  0  0  0
    5.7441    2.0621   -1.3624 C   0  0  0  0  0  0  0  0  0  0  0  0
    3.4259    0.9019    2.4596 C   0  0  0  0  0  0  0  0  0  0  0  0
    3.0834    2.0692    2.5581 O   0  0  0  0  0  0  0  0  0  0  0  0
    3.6194    0.1783    3.5821 O   0  0  0  0  0  0  0  0  0  0  0  0
    0.9458   -1.5281   -0.9718 C   0  0  0  0  0  0  0  0  0  0  0  0
   -0.5726    0.4781    2.1439 C   0  0  0  0  0  0  0  0  0  0  0  0
   -5.4133   -2.5516   -0.1881 C   0  0  0  0  0  0  0  0  0  0  0  0
   -5.8613   -0.4591    1.0487 C   0  0  0  0  0  0  0  0  0  0  0  0
   -6.9251   -0.4330   -1.6030 O   0  0  0  0  0  0  0  0  0  0  0  0
   -3.5344    1.0876    1.8827 H   0  0  0  0  0  0  0  0  0  0  0  0
   -4.3362    2.0661    0.6854 H   0  0  0  0  0  0  0  0  0  0  0  0
   -2.6848    2.3911    1.0690 H   0  0  0  0  0  0  0  0  0  0  0  0
   -3.0308    0.5916   -2.3825 H   0  0  0  0  0  0  0  0  0  0  0  0
   -3.2208    2.1887   -1.6768 H   0  0  0  0  0  0  0  0  0  0  0  0
   -5.5396    1.7007   -1.0348 H   0  0  0  0  0  0  0  0  0  0  0  0
   -5.2937    1.3403   -2.7115 H   0  0  0  0  0  0  0  0  0  0  0  0
   -5.1130   -1.0368   -2.3063 H   0  0  0  0  0  0  0  0  0  0  0  0
   -3.0970   -1.4478   -0.8390 H   0  0  0  0  0  0  0  0  0  0  0  0
   -3.2804   -2.5222    1.4145 H   0  0  0  0  0  0  0  0  0  0  0  0
   -3.1210   -0.9608    2.1749 H   0  0  0  0  0  0  0  0  0  0  0  0
   -1.2137   -2.3834    0.3070 H   0  0  0  0  0  0  0  0  0  0  0  0
   -0.9635   -2.1310    2.0149 H   0  0  0  0  0  0  0  0  0  0  0  0
   -1.2245   -0.1244   -1.2279 H   0  0  0  0  0  0  0  0  0  0  0  0
   -0.9634    2.6037    0.0559 H   0  0  0  0  0  0  0  0  0  0  0  0
   -0.8894    2.1348   -1.6325 H   0  0  0  0  0  0  0  0  0  0  0  0
    1.3633    2.6850   -0.7881 H   0  0  0  0  0  0  0  0  0  0  0  0
    1.5043   -0.9985    2.3932 H   0  0  0  0  0  0  0  0  0  0  0  0
    1.4293   -2.4344    1.4178 H   0  0  0  0  0  0  0  0  0  0  0  0
    3.7099   -1.8492    2.0804 H   0  0  0  0  0  0  0  0  0  0  0  0
    3.5541   -1.8744    0.3435 H   0  0  0  0  0  0  0  0  0  0  0  0
    3.3227    1.9333    0.0843 H   0  0  0  0  0  0  0  0  0  0  0  0
    3.4927   -0.5509   -1.6597 H   0  0  0  0  0  0  0  0  0  0  0  0
    3.3310    1.1044   -2.1909 H   0  0  0  0  0  0  0  0  0  0  0  0
    6.9783   -0.1048   -0.2372 H   0  0  0  0  0  0  0  0  0  0  0  0
    5.7057   -1.2939   -0.4292 H   0  0  0  0  0  0  0  0  0  0  0  0
    5.6773    1.1737    1.3504 H   0  0  0  0  0  0  0  0  0  0  0  0
    5.7393   -0.4918    1.8583 H   0  0  0  0  0  0  0  0  0  0  0  0
    5.4039    0.5465   -3.6173 H   0  0  0  0  0  0  0  0  0  0  0  0
    5.5292   -1.0504   -2.8669 H   0  0  0  0  0  0  0  0  0  0  0  0
    6.9065    0.0581   -2.8176 H   0  0  0  0  0  0  0  0  0  0  0  0
    5.4199    2.5606   -0.4448 H   0  0  0  0  0  0  0  0  0  0  0  0
    6.8364    2.1415   -1.4071 H   0  0  0  0  0  0  0  0  0  0  0  0
    5.3367    2.6334   -2.2044 H   0  0  0  0  0  0  0  0  0  0  0  0
    3.3948    0.8058    4.3011 H   0  0  0  0  0  0  0  0  0  0  0  0
    0.5517   -1.0223   -1.8589 H   0  0  0  0  0  0  0  0  0  0  0  0
    1.9583   -1.8485   -1.2280 H   0  0  0  0  0  0  0  0  0  0  0  0
    0.3906   -2.4588   -0.8410 H   0  0  0  0  0  0  0  0  0  0  0  0
   -0.1938   -0.1191    2.9786 H   0  0  0  0  0  0  0  0  0  0  0  0
    0.0471    1.3764    2.0809 H   0  0  0  0  0  0  0  0  0  0  0  0
   -1.5604    0.7965    2.4683 H   0  0  0  0  0  0  0  0  0  0  0  0
   -4.8123   -3.0736   -0.9411 H   0  0  0  0  0  0  0  0  0  0  0  0
   -6.4674   -2.7059   -0.4463 H   0  0  0  0  0  0  0  0  0  0  0  0
   -5.2532   -3.0465    0.7750 H   0  0  0  0  0  0  0  0  0  0  0  0
   -5.4716   -0.8064    2.0107 H   0  0  0  0  0  0  0  0  0  0  0  0
   -6.9112   -0.7731    1.0029 H   0  0  0  0  0  0  0  0  0  0  0  0
   -5.8724    0.6310    1.0608 H   0  0  0  0  0  0  0  0  0  0  0  0
   -7.1544   -0.0775   -2.4786 H   0  0  0  0  0  0  0  0  0  0  0  0
  2  1  1  1
  2  3  1  0
  3  4  1  0
  4  5  1  0
  5  6  1  0
  6  7  1  0
  7  8  1  0
  8  9  1  0
  9 10  1  0
 10 11  1  0
 11 12  1  0
 12 13  1  0
 13 14  2  0
 14 15  1  0
 15 16  1  0
 16 17  1  0
 17 18  1  0
 18 19  1  0
 19 20  1  0
 20 21  1  0
 21 22  1  0
 22 23  1  0
 21 24  1  0
 21 25  1  0
 18 26  1  1
 26 27  2  0
 26 28  1  0
 15 29  1  6
 10 30  1  1
  6 31  1  0
  6 32  1  0
  5 33  1  0
  7  2  1  0
 11  2  1  0
 15 10  1  0
 19 14  1  0
 23 18  1  0
  1 34  1  0
  1 35  1  0
  1 36  1  0
  3 37  1  0
  3 38  1  0
  4 39  1  0
  4 40  1  0
  5 41  1  6
  7 42  1  6
  8 43  1  0
  8 44  1  0
  9 45  1  0
  9 46  1  0
 11 47  1  6
 12 48  1  0
 12 49  1  0
 13 50  1  0
 16 51  1  0
 16 52  1  0
 17 53  1  0
 17 54  1  0
 19 55  1  1
 20 56  1  0
 20 57  1  0
 22 58  1  0
 22 59  1  0
 23 60  1  0
 23 61  1  0
 24 62  1  0
 24 63  1  0
 24 64  1  0
 25 65  1  0
 25 66  1  0
 25 67  1  0
 28 68  1  0
 29 69  1  0
 29 70  1  0
 29 71  1  0
 30 72  1  0
 30 73  1  0
 30 74  1  0
 31 75  1  0
 31 76  1  0
 31 77  1  0
 32 78  1  0
 32 79  1  0
 32 80  1  0
 33 81  1  0
M  END
$$$$
ursolic acid
     RDKit          3D

 81 85  0  0  0  0  0  0  0  0999 V2000
   -6.1445    2.0668   -1.1532 C   0  0  0  0  0  0  0  0  0  0  0  0
   -5.3414    0.7841   -1.4121 C   0  0  2  0  0  0  0  0  0  0  0  0
   -6.0022   -0.4083   -0.7000 C   0  0  0  0  0  0  0  0  0  0  0  0
   -5.4211   -0.6362    0.6898 C   0  0  0  0  0  0  0  0  0  0  0  0
   -3.9028   -0.9733    0.6538 C   0  0  2  0  0  0  0  0  0  0  0  0
   -3.2685   -0.3978    1.9443 C   0  0  0  0  0  0  0  0  0  0  0  0
   -1.7561   -0.6112    2.0132 C   0  0  0  0  0  0  0  0  0  0  0  0
   -0.9621   -0.0233    0.8115 C   0  0  2  0  0  0  0  0  0  0  0  0
   -1.6629   -0.4013   -0.5112 C   0  0  0  0  0  0  0  0  0  0  0  0
   -0.9588   -0.7844   -1.5972 C   0  0  0  0  0  0  0  0  0  0  0  0
    0.5346   -0.8512   -1.7058 C   0  0  0  0  0  0  0  0  0  0  0  0
    1.2700   -0.1725   -0.5321 C   0  0  1  0  0  0  0  0  0  0  0  0
    0.5853   -0.5711    0.8319 C   0  0  1  0  0  0  0  0  0  0  0  0
    1.3841    0.0368    2.0162 C   0  0  0  0  0  0  0  0  0  0  0  0
    2.8943   -0.1839    1.9371 C   0  0  0  0  0  0  0  0  0  0  0  0
    3.4634    0.4386    0.6470 C   0  0  2  0  0  0  0  0  0  0  0  0
    2.8622   -0.2441   -0.6285 C   0  0  2  0  0  0  0  0  0  0  0  0
    3.3121    0.5660   -1.8969 C   0  0  0  0  0  0  0  0  0  0  0  0
    4.4876    1.5262   -1.6814 C   0  0  0  0  0  0  0  0  0  0  0  0
    5.5735    0.9601   -0.7720 C   0  0  1  0  0  0  0  0  0  0  0  0
    5.0323    0.6270    0.6560 C   0  0  0  0  0  0  0  0  0  0  0  0
    5.7910   -0.5636    1.2795 C   0  0  0  0  0  0  0  0  0  0  0  0
    5.3489    1.8599    1.5530 C   0  0  0  0  0  0  0  0  0  0  0  0
    6.1609   -0.1765   -1.4006 O   0  0  0  0  0  0  0  0  0  0  0  0
    3.3820   -1.6911   -0.8091 C   0  0  0  0  0  0  0  0  0  0  0  0
    0.5867   -2.1194    1.0191 C   0  0  0  0  0  0  0  0  0  0  0  0
   -3.2004   -0.3882   -0.6127 C   0  0  2  0  0  0  0  0  0  0  0  0
   -3.8451    0.9779   -1.0155 C   0  0  1  0  0  0  0  0  0  0  0  0
   -3.1016    1.6870   -2.1576 C   0  0  0  0  0  0  0  0  0  0  0  0
   -1.0117    1.5268    0.9433 C   0  0  0  0  0  0  0  0  0  0  0  0
   -3.8014   -2.5051    0.6843 C   0  0  0  0  0  0  0  0  0  0  0  0
   -3.5947   -3.2029    1.6656 O   0  0  0  0  0  0  0  0  0  0  0  0
   -4.0535   -3.1022   -0.4963 O   0  0  0  0  0  0  0  0  0  0  0  0
   -7.1832    1.9454   -1.4794 H   0  0  0  0  0  0  0  0  0  0  0  0
   -5.7290    2.9172   -1.7016 H   0  0  0  0  0  0  0  0  0  0  0  0
   -6.1540    2.3227   -0.0885 H   0  0  0  0  0  0  0  0  0  0  0  0
   -5.4041    0.5822   -2.4902 H   0  0  0  0  0  0  0  0  0  0  0  0
   -5.8607   -1.3120   -1.3053 H   0  0  0  0  0  0  0  0  0  0  0  0
   -7.0872   -0.2662   -0.6294 H   0  0  0  0  0  0  0  0  0  0  0  0
   -5.9840   -1.4382    1.1847 H   0  0  0  0  0  0  0  0  0  0  0  0
   -5.6029    0.2670    1.2866 H   0  0  0  0  0  0  0  0  0  0  0  0
   -3.4868    0.6729    2.0332 H   0  0  0  0  0  0  0  0  0  0  0  0
   -3.7236   -0.8651    2.8280 H   0  0  0  0  0  0  0  0  0  0  0  0
   -1.5959   -1.6870    2.1042 H   0  0  0  0  0  0  0  0  0  0  0  0
   -1.3874   -0.1781    2.9515 H   0  0  0  0  0  0  0  0  0  0  0  0
   -1.4864   -1.0757   -2.5046 H   0  0  0  0  0  0  0  0  0  0  0  0
    0.7972   -1.9096   -1.7892 H   0  0  0  0  0  0  0  0  0  0  0  0
    0.8262   -0.3784   -2.6501 H   0  0  0  0  0  0  0  0  0  0  0  0
    1.0685    0.9011   -0.6458 H   0  0  0  0  0  0  0  0  0  0  0  0
    1.0159   -0.3599    2.9700 H   0  0  0  0  0  0  0  0  0  0  0  0
    1.2412    1.1199    2.0649 H   0  0  0  0  0  0  0  0  0  0  0  0
    3.1310   -1.2487    2.0164 H   0  0  0  0  0  0  0  0  0  0  0  0
    3.3393    0.2923    2.8175 H   0  0  0  0  0  0  0  0  0  0  0  0
    3.0572    1.4637    0.6282 H   0  0  0  0  0  0  0  0  0  0  0  0
    3.5617   -0.1246   -2.7134 H   0  0  0  0  0  0  0  0  0  0  0  0
    2.4875    1.1751   -2.2875 H   0  0  0  0  0  0  0  0  0  0  0  0
    4.9117    1.7704   -2.6633 H   0  0  0  0  0  0  0  0  0  0  0  0
    4.1140    2.4688   -1.2626 H   0  0  0  0  0  0  0  0  0  0  0  0
    6.3817    1.6979   -0.6964 H   0  0  0  0  0  0  0  0  0  0  0  0
    5.5360   -0.6993    2.3361 H   0  0  0  0  0  0  0  0  0  0  0  0
    6.8743   -0.3988    1.2355 H   0  0  0  0  0  0  0  0  0  0  0  0
    5.5844   -1.5071    0.7703 H   0  0  0  0  0  0  0  0  0  0  0  0
    5.0070    1.7172    2.5828 H   0  0  0  0  0  0  0  0  0  0  0  0
    4.8739    2.7686    1.1663 H   0  0  0  0  0  0  0  0  0  0  0  0
    6.4284    2.0473    1.5973 H   0  0  0  0  0  0  0  0  0  0  0  0
    6.5028    0.1072   -2.2655 H   0  0  0  0  0  0  0  0  0  0  0  0
    3.3821   -2.2688    0.1145 H   0  0  0  0  0  0  0  0  0  0  0  0
    2.8140   -2.2493   -1.5565 H   0  0  0  0  0  0  0  0  0  0  0  0
    4.4115   -1.7160   -1.1690 H   0  0  0  0  0  0  0  0  0  0  0  0
    1.5501   -2.5750    0.8102 H   0  0  0  0  0  0  0  0  0  0  0  0
    0.3596   -2.3984    2.0541 H   0  0  0  0  0  0  0  0  0  0  0  0
   -0.1445   -2.6215    0.3785 H   0  0  0  0  0  0  0  0  0  0  0  0
   -3.4412   -1.0509   -1.4574 H   0  0  0  0  0  0  0  0  0  0  0  0
   -3.8176    1.6469   -0.1486 H   0  0  0  0  0  0  0  0  0  0  0  0
   -2.0823    1.9573   -1.8669 H   0  0  0  0  0  0  0  0  0  0  0  0
   -3.6025    2.6177   -2.4413 H   0  0  0  0  0  0  0  0  0  0  0  0
   -3.0488    1.0526   -3.0488 H   0  0  0  0  0  0  0  0  0  0  0  0
   -0.4243    2.0378    0.1763 H   0  0  0  0  0  0  0  0  0  0  0  0
   -0.6583    1.8646    1.9225 H   0  0  0  0  0  0  0  0  0  0  0  0
   -2.0248    1.9225    0.8625 H   0  0  0  0  0  0  0  0  0  0  0  0
   -3.9678   -4.0575   -0.2946 H   0  0  0  0  0  0  0  0  0  0  0  0
  1  2  1  0
  2  3  1  0
  3  4  1  0
  4  5  1  0
  5  6  1  0
  6  7  1  0
  7  8  1  0
  8  9  1  0
  9 10  2  0
 10 11  1  0
 11 12  1  0
 12 13  1  0
 13 14  1  0
 14 15  1  0
 15 16  1  0
 16 17  1  0
 17 18  1  0
 18 19  1  0
 19 20  1  0
 20 21  1  0
 21 22  1  0
 21 23  1  0
 20 24  1  0
 17 25  1  6
 13 26  1  1
  9 27  1  0
 27 28  1  0
 28 29  1  0
  8 30  1  1
  5 31  1  1
 31 32  2  0
 31 33  1  0
 28  2  1  0
 27  5  1  0
 13  8  1  0
 17 12  1  0
 21 16  1  0
  1 34  1  0
  1 35  1  0
  1 36  1  0
  2 37  1  6
  3 38  1  0
  3 39  1  0
  4 40  1  0
  4 41  1  0
  6 42  1  0
  6 43  1  0
  7 44  1  0
  7 45  1  0
 10 46  1  0
 11 47  1  0
 11 48  1  0
 12 49  1  6
 14 50  1  0
 14 51  1  0
 15 52  1  0
 15 53  1  0
 16 54  1  6
 18 55  1  0
 18 56  1  0
 19 57  1  0
 19 58  1  0
 20 59  1  1
 22 60  1  0
 22 61  1  0
 22 62  1  0
 23 63  1  0
 23 64  1  0
 23 65  1  0
 24 66  1  0
 25 67  1  0
 25 68  1  0
 25 69  1  0
 26 70  1  0
 26 71  1  0
 26 72  1  0
 27 73  1  6
 28 74  1  1
 29 75  1  0
 29 76  1  0
 29 77  1  0
 30 78  1  0
 30 79  1  0
 30 80  1  0
 33 81  1  0
M  END
$$$$
beta-amyrin
     RDKit          3D

 81 85  0  0  0  0  0  0  0  0999 V2000
   -3.8233    2.3894   -0.7240 C   0  0  0  0  0  0  0  0  0  0  0  0
   -3.8687    0.8411   -0.7349 C   0  0  1  0  0  0  0  0  0  0  0  0
   -3.1941    0.3117   -2.0202 C   0  0  0  0  0  0  0  0  0  0  0  0
   -1.6907    0.5820   -2.0577 C   0  0  0  0  0  0  0  0  0  0  0  0
   -0.8986   -0.0196   -0.8588 C   0  0  2  0  0  0  0  0  0  0  0  0
   -1.6153    0.2907    0.4685 C   0  0  0  0  0  0  0  0  0  0  0  0
   -0.9254    0.5593    1.5957 C   0  0  0  0  0  0  0  0  0  0  0  0
    0.5661    0.5928    1.7333 C   0  0  0  0  0  0  0  0  0  0  0  0
    1.3338    0.0827    0.4950 C   0  0  1  0  0  0  0  0  0  0  0  0
    0.6339    0.5602   -0.8365 C   0  0  1  0  0  0  0  0  0  0  0  0
    1.4430    0.0525   -2.0626 C   0  0  0  0  0  0  0  0  0  0  0  0
    2.9546    0.2758   -1.9748 C   0  0  0  0  0  0  0  0  0  0  0  0
    3.5294   -0.3992   -0.7130 C   0  0  2  0  0  0  0  0  0  0  0  0
    2.9200    0.2436    0.5878 C   0  0  2  0  0  0  0  0  0  0  0  0
    3.4270   -0.5763    1.8145 C   0  0  0  0  0  0  0  0  0  0  0  0
    4.9413   -0.7724    1.8581 C   0  0  0  0  0  0  0  0  0  0  0  0
    5.4834   -1.3858    0.5708 C   0  0  1  0  0  0  0  0  0  0  0  0
    5.0891   -0.6081   -0.7204 C   0  0  0  0  0  0  0  0  0  0  0  0
    5.8933    0.6982   -0.8740 C   0  0  0  0  0  0  0  0  0  0  0  0
    5.4929   -1.5002   -1.9279 C   0  0  0  0  0  0  0  0  0  0  0  0
    6.8986   -1.5285    0.6879 O   0  0  0  0  0  0  0  0  0  0  0  0
    3.3617    1.7135    0.8012 C   0  0  0  0  0  0  0  0  0  0  0  0
    0.6045    2.1164   -0.9164 C   0  0  0  0  0  0  0  0  0  0  0  0
   -3.1462    0.3096    0.5406 C   0  0  2  0  0  0  0  0  0  0  0  0
   -3.7376   -1.0437    0.9862 C   0  0  0  0  0  0  0  0  0  0  0  0
   -5.2221   -0.9096    1.4257 C   0  0  0  0  0  0  0  0  0  0  0  0
   -5.9437    0.2144    0.6394 C   0  0  0  0  0  0  0  0  0  0  0  0
   -5.3621    0.3951   -0.7622 C   0  0  0  0  0  0  0  0  0  0  0  0
   -5.9312   -2.2572    1.1882 C   0  0  0  0  0  0  0  0  0  0  0  0
   -5.3007   -0.5924    2.9314 C   0  0  0  0  0  0  0  0  0  0  0  0
   -0.9182   -1.5687   -1.0279 C   0  0  0  0  0  0  0  0  0  0  0  0
   -4.2363    2.8032   -1.6508 H   0  0  0  0  0  0  0  0  0  0  0  0
   -4.4106    2.7961    0.1069 H   0  0  0  0  0  0  0  0  0  0  0  0
   -2.8043    2.7731   -0.6127 H   0  0  0  0  0  0  0  0  0  0  0  0
   -3.6568    0.7787   -2.8998 H   0  0  0  0  0  0  0  0  0  0  0  0
   -3.3724   -0.7641   -2.1314 H   0  0  0  0  0  0  0  0  0  0  0  0
   -1.5676    1.6651   -2.1181 H   0  0  0  0  0  0  0  0  0  0  0  0
   -1.2933    0.1866   -3.0008 H   0  0  0  0  0  0  0  0  0  0  0  0
   -1.4679    0.7817    2.5138 H   0  0  0  0  0  0  0  0  0  0  0  0
    0.8314   -0.0197    2.6026 H   0  0  0  0  0  0  0  0  0  0  0  0
    0.8342    1.6226    1.9814 H   0  0  0  0  0  0  0  0  0  0  0  0
    1.1981   -1.0067    0.5150 H   0  0  0  0  0  0  0  0  0  0  0  0
    1.3078   -1.0247   -2.1929 H   0  0  0  0  0  0  0  0  0  0  0  0
    1.0713    0.5163   -2.9843 H   0  0  0  0  0  0  0  0  0  0  0  0
    3.3916   -0.1594   -2.8787 H   0  0  0  0  0  0  0  0  0  0  0  0
    3.1863    1.3430   -2.0153 H   0  0  0  0  0  0  0  0  0  0  0  0
    3.1308   -1.4279   -0.7349 H   0  0  0  0  0  0  0  0  0  0  0  0
    2.9603   -1.5703    1.8099 H   0  0  0  0  0  0  0  0  0  0  0  0
    3.1159   -0.0942    2.7492 H   0  0  0  0  0  0  0  0  0  0  0  0
    5.4585    0.1665    2.0826 H   0  0  0  0  0  0  0  0  0  0  0  0
    5.1931   -1.4305    2.7001 H   0  0  0  0  0  0  0  0  0  0  0  0
    5.0839   -2.4059    0.4982 H   0  0  0  0  0  0  0  0  0  0  0  0
    5.8833    1.3117    0.0271 H   0  0  0  0  0  0  0  0  0  0  0  0
    5.5206    1.3062   -1.7043 H   0  0  0  0  0  0  0  0  0  0  0  0
    6.9485    0.4892   -1.0882 H   0  0  0  0  0  0  0  0  0  0  0  0
    4.8950   -2.4178   -1.9616 H   0  0  0  0  0  0  0  0  0  0  0  0
    6.5463   -1.7979   -1.8712 H   0  0  0  0  0  0  0  0  0  0  0  0
    5.3673   -0.9797   -2.8826 H   0  0  0  0  0  0  0  0  0  0  0  0
    7.2742   -0.6609    0.9135 H   0  0  0  0  0  0  0  0  0  0  0  0
    3.5222    2.2535   -0.1330 H   0  0  0  0  0  0  0  0  0  0  0  0
    4.2991    1.7945    1.3559 H   0  0  0  0  0  0  0  0  0  0  0  0
    2.6466    2.2890    1.3913 H   0  0  0  0  0  0  0  0  0  0  0  0
   -0.0816    2.5628   -0.1911 H   0  0  0  0  0  0  0  0  0  0  0  0
    0.3037    2.4636   -1.9104 H   0  0  0  0  0  0  0  0  0  0  0  0
    1.5786    2.5700   -0.7537 H   0  0  0  0  0  0  0  0  0  0  0  0
   -3.3948    1.0164    1.3479 H   0  0  0  0  0  0  0  0  0  0  0  0
   -3.6749   -1.7569    0.1572 H   0  0  0  0  0  0  0  0  0  0  0  0
   -3.1453   -1.4790    1.8014 H   0  0  0  0  0  0  0  0  0  0  0  0
   -5.8672    1.1688    1.1758 H   0  0  0  0  0  0  0  0  0  0  0  0
   -7.0170   -0.0004    0.5652 H   0  0  0  0  0  0  0  0  0  0  0  0
   -5.4711   -0.5538   -1.3028 H   0  0  0  0  0  0  0  0  0  0  0  0
   -5.9663    1.1231   -1.3179 H   0  0  0  0  0  0  0  0  0  0  0  0
   -5.9424   -2.5209    0.1250 H   0  0  0  0  0  0  0  0  0  0  0  0
   -6.9712   -2.2249    1.5323 H   0  0  0  0  0  0  0  0  0  0  0  0
   -5.4277   -3.0676    1.7274 H   0  0  0  0  0  0  0  0  0  0  0  0
   -4.8427   -1.3885    3.5292 H   0  0  0  0  0  0  0  0  0  0  0  0
   -4.7821    0.3418    3.1723 H   0  0  0  0  0  0  0  0  0  0  0  0
   -6.3418   -0.4887    3.2581 H   0  0  0  0  0  0  0  0  0  0  0  0
   -0.5328   -1.8797   -2.0034 H   0  0  0  0  0  0  0  0  0  0  0  0
   -1.9277   -1.9813   -0.9801 H   0  0  0  0  0  0  0  0  0  0  0  0
   -0.3472   -2.0894   -0.2549 H   0  0  0  0  0  0  0  0  0  0  0  0
  2  1  1  6
  2  3  1  0
  3  4  1  0
  4  5  1  0
  5  6  1  0
  6  7  2  0
  7  8  1  0
  8  9  1  0
  9 10  1  0
 10 11  1  0
 11 12  1  0
 12 13  1  0
 13 14  1  0
 14 15  1  0
 15 16  1  0
 16 17  1  0
 17 18  1  0
 18 19  1  0
 18 20  1  0
 17 21  1  0
 14 22  1  1
 10 23  1  1
  6 24  1  0
 24 25  1  0
 25 26  1  0
 26 27  1  0
 27 28  1  0
 26 29  1  0
 26 30  1  0
  5 31  1  6
 24  2  1  0
 28  2  1  0
 10  5  1  0
 14  9  1  0
 18 13  1  0
  1 32  1  0
  1 33  1  0
  1 34  1  0
  3 35  1  0
  3 36  1  0
  4 37  1  0
  4 38  1  0
  7 39  1  0
  8 40  1  0
  8 41  1  0
  9 42  1  6
 11 43  1  0
 11 44  1  0
 12 45  1  0
 12 46  1  0
 13 47  1  6
 15 48  1  0
 15 49  1  0
 16 50  1  0
 16 51  1  0
 17 52  1  6
 19 53  1  0
 19 54  1  0
 19 55  1  0
 20 56  1  0
 20 57  1  0
 20 58  1  0
 21 59  1  0
 22 60  1  0
 22 61  1  0
 22 62  1  0
 23 63  1  0
 23 64  1  0
 23 65  1  0
 24 66  1  1
 25 67  1  0
 25 68  1  0
 27 69  1  0
 27 70  1  0
 28 71  1  0
 28 72  1  0
 29 73  1  0
 29 74  1  0
 29 75  1  0
 30 76  1  0
 30 77  1  0
 30 78  1  0
 31 79  1  0
 31 80  1  0
 31 81  1  0
M  END
$$$$
palmitic acid
     RDKit          3D

 50 49  0  0  0  0  0  0  0  0999 V2000
   -5.6963   -0.4423    2.2573 C   0  0  0  0  0  0  0  0  0  0  0  0
   -6.3249   -1.0701    1.0228 C   0  0  0  0  0  0  0  0  0  0  0  0
   -5.3066   -1.7078    0.0752 C   0  0  0  0  0  0  0  0  0  0  0  0
   -4.3589   -0.6925   -0.5692 C   0  0  0  0  0  0  0  0  0  0  0  0
   -3.4285   -1.3695   -1.5787 C   0  0  0  0  0  0  0  0  0  0  0  0
   -2.5338   -0.3865   -2.3402 C   0  0  0  0  0  0  0  0  0  0  0  0
   -1.6048    0.4815   -1.4838 C   0  0  0  0  0  0  0  0  0  0  0  0
   -0.6157   -0.3308   -0.6442 C   0  0  0  0  0  0  0  0  0  0  0  0
    0.3160    0.5373    0.2097 C   0  0  0  0  0  0  0  0  0  0  0  0
    1.3255    1.3399   -0.6151 C   0  0  0  0  0  0  0  0  0  0  0  0
    2.2618    2.2000    0.2408 C   0  0  0  0  0  0  0  0  0  0  0  0
    3.1499    1.4403    1.2318 C   0  0  0  0  0  0  0  0  0  0  0  0
    4.0291    0.3388    0.6314 C   0  0  0  0  0  0  0  0  0  0  0  0
    5.0227    0.8569   -0.4132 C   0  0  0  0  0  0  0  0  0  0  0  0
    5.9255   -0.2489   -0.9541 C   0  0  0  0  0  0  0  0  0  0  0  0
    6.8997   -0.7541    0.0721 C   0  0  0  0  0  0  0  0  0  0  0  0
    6.9053   -1.8651    0.5746 O   0  0  0  0  0  0  0  0  0  0  0  0
    7.8292    0.1590    0.4092 O   0  0  0  0  0  0  0  0  0  0  0  0
   -5.0758   -1.1666    2.7942 H   0  0  0  0  0  0  0  0  0  0  0  0
   -6.4779   -0.0939    2.9402 H   0  0  0  0  0  0  0  0  0  0  0  0
   -5.0762    0.4206    1.9976 H   0  0  0  0  0  0  0  0  0  0  0  0
   -6.9110   -0.3142    0.4873 H   0  0  0  0  0  0  0  0  0  0  0  0
   -7.0292   -1.8454    1.3475 H   0  0  0  0  0  0  0  0  0  0  0  0
   -5.8575   -2.2354   -0.7133 H   0  0  0  0  0  0  0  0  0  0  0  0
   -4.7255   -2.4652    0.6154 H   0  0  0  0  0  0  0  0  0  0  0  0
   -4.9427    0.0872   -1.0729 H   0  0  0  0  0  0  0  0  0  0  0  0
   -3.7624   -0.2055    0.2086 H   0  0  0  0  0  0  0  0  0  0  0  0
   -4.0334   -1.9138   -2.3150 H   0  0  0  0  0  0  0  0  0  0  0  0
   -2.8146   -2.1227   -1.0719 H   0  0  0  0  0  0  0  0  0  0  0  0
   -1.9267   -0.9550   -3.0558 H   0  0  0  0  0  0  0  0  0  0  0  0
   -3.1703    0.2779   -2.9382 H   0  0  0  0  0  0  0  0  0  0  0  0
   -2.1956    1.1363   -0.8335 H   0  0  0  0  0  0  0  0  0  0  0  0
   -1.0549    1.1403   -2.1652 H   0  0  0  0  0  0  0  0  0  0  0  0
   -0.0197   -0.9810   -1.2957 H   0  0  0  0  0  0  0  0  0  0  0  0
   -1.1697   -0.9859    0.0377 H   0  0  0  0  0  0  0  0  0  0  0  0
    0.8528   -0.1306    0.8928 H   0  0  0  0  0  0  0  0  0  0  0  0
   -0.2798    1.2158    0.8320 H   0  0  0  0  0  0  0  0  0  0  0  0
    1.9095    0.6640   -1.2497 H   0  0  0  0  0  0  0  0  0  0  0  0
    0.7916    2.0149   -1.2933 H   0  0  0  0  0  0  0  0  0  0  0  0
    2.8947    2.7957   -0.4277 H   0  0  0  0  0  0  0  0  0  0  0  0
    1.6596    2.9237    0.8048 H   0  0  0  0  0  0  0  0  0  0  0  0
    2.5231    0.9980    2.0152 H   0  0  0  0  0  0  0  0  0  0  0  0
    3.7943    2.1678    1.7417 H   0  0  0  0  0  0  0  0  0  0  0  0
    3.4024   -0.4457    0.1923 H   0  0  0  0  0  0  0  0  0  0  0  0
    4.5795   -0.1333    1.4544 H   0  0  0  0  0  0  0  0  0  0  0  0
    5.6276    1.6609    0.0227 H   0  0  0  0  0  0  0  0  0  0  0  0
    4.4752    1.2884   -1.2585 H   0  0  0  0  0  0  0  0  0  0  0  0
    6.5018    0.1150   -1.8126 H   0  0  0  0  0  0  0  0  0  0  0  0
    5.3284   -1.0950   -1.3130 H   0  0  0  0  0  0  0  0  0  0  0  0
    8.3873   -0.3032    1.0693 H   0  0  0  0  0  0  0  0  0  0  0  0
  1  2  1  0
  2  3  1  0
  3  4  1  0
  4  5  1  0
  5  6  1  0
  6  7  1  0
  7  8  1  0
  8  9  1  0
  9 10  1  0
 10 11  1  0
 11 12  1  0
 12 13  1  0
 13 14  1  0
 14 15  1  0
 15 16  1  0
 16 17  2  0
 16 18  1  0
  1 19  1  0
  1 20  1  0
  1 21  1  0
  2 22  1  0
  2 23  1  0
  3 24  1  0
  3 25  1  0
  4 26  1  0
  4 27  1  0
  5 28  1  0
  5 29  1  0
  6 30  1  0
  6 31  1  0
  7 32  1  0
  7 33  1  0
  8 34  1  0
  8 35  1  0
  9 36  1  0
  9 37  1  0
 10 38  1  0
 10 39  1  0
 11 40  1  0
 11 41  1  0
 12 42  1  0
 12 43  1  0
 13 44  1  0
 13 45  1  0
 14 46  1  0
 14 47  1  0
 15 48  1  0
 15 49  1  0
 18 50  1  0
M  END
$$$$
oleic acid
     RDKit          3D

 54 53  0  0  0  0  0  0  0  0999 V2000
   -1.3058   -2.0327    2.1288 C   0  0  0  0  0  0  0  0  0  0  0  0
   -2.2532   -1.9723    0.9398 C   0  0  0  0  0  0  0  0  0  0  0  0
   -1.5416   -1.4476   -0.3064 C   0  0  0  0  0  0  0  0  0  0  0  0
   -2.4239   -1.4375   -1.5581 C   0  0  0  0  0  0  0  0  0  0  0  0
   -3.6754   -0.5547   -1.4883 C   0  0  0  0  0  0  0  0  0  0  0  0
   -3.4388    0.9085   -1.0992 C   0  0  0  0  0  0  0  0  0  0  0  0
   -2.4875    1.6452   -2.0476 C   0  0  0  0  0  0  0  0  0  0  0  0
   -2.3086    3.1292   -1.7081 C   0  0  0  0  0  0  0  0  0  0  0  0
   -1.8176    3.3754   -0.3094 C   0  0  0  0  0  0  0  0  0  0  0  0
   -0.5439    3.4154    0.1133 C   0  0  0  0  0  0  0  0  0  0  0  0
    0.6982    3.2237   -0.7103 C   0  0  0  0  0  0  0  0  0  0  0  0
    1.3010    1.8178   -0.5972 C   0  0  0  0  0  0  0  0  0  0  0  0
    1.7182    1.4323    0.8263 C   0  0  0  0  0  0  0  0  0  0  0  0
    2.2320   -0.0084    0.9332 C   0  0  0  0  0  0  0  0  0  0  0  0
    3.6052   -0.2148    0.2932 C   0  0  0  0  0  0  0  0  0  0  0  0
    4.0603   -1.6797    0.2552 C   0  0  0  0  0  0  0  0  0  0  0  0
    4.2751   -2.3178    1.6269 C   0  0  0  0  0  0  0  0  0  0  0  0
    3.0244   -2.8873    2.2388 C   0  0  0  0  0  0  0  0  0  0  0  0
    2.5893   -2.6336    3.3498 O   0  0  0  0  0  0  0  0  0  0  0  0
    2.4088   -3.7899    1.4536 O   0  0  0  0  0  0  0  0  0  0  0  0
   -0.4644   -2.7024    1.9259 H   0  0  0  0  0  0  0  0  0  0  0  0
   -0.9063   -1.0407    2.3630 H   0  0  0  0  0  0  0  0  0  0  0  0
   -1.8309   -2.4058    3.0136 H   0  0  0  0  0  0  0  0  0  0  0  0
   -2.6539   -2.9739    0.7466 H   0  0  0  0  0  0  0  0  0  0  0  0
   -3.0990   -1.3261    1.1975 H   0  0  0  0  0  0  0  0  0  0  0  0
   -0.6688   -2.0804   -0.5120 H   0  0  0  0  0  0  0  0  0  0  0  0
   -1.1517   -0.4427   -0.1120 H   0  0  0  0  0  0  0  0  0  0  0  0
   -2.7398   -2.4651   -1.7782 H   0  0  0  0  0  0  0  0  0  0  0  0
   -1.8106   -1.1252   -2.4119 H   0  0  0  0  0  0  0  0  0  0  0  0
   -4.3866   -0.9924   -0.7774 H   0  0  0  0  0  0  0  0  0  0  0  0
   -4.1716   -0.5852   -2.4665 H   0  0  0  0  0  0  0  0  0  0  0  0
   -4.4077    1.4233   -1.0950 H   0  0  0  0  0  0  0  0  0  0  0  0
   -3.0633    0.9512   -0.0711 H   0  0  0  0  0  0  0  0  0  0  0  0
   -1.5057    1.1612   -2.0462 H   0  0  0  0  0  0  0  0  0  0  0  0
   -2.8710    1.5686   -3.0725 H   0  0  0  0  0  0  0  0  0  0  0  0
   -3.2669    3.6492   -1.8312 H   0  0  0  0  0  0  0  0  0  0  0  0
   -1.6313    3.5861   -2.4383 H   0  0  0  0  0  0  0  0  0  0  0  0
   -2.5998    3.5261    0.4345 H   0  0  0  0  0  0  0  0  0  0  0  0
   -0.3733    3.6039    1.1731 H   0  0  0  0  0  0  0  0  0  0  0  0
    1.4398    3.9672   -0.3933 H   0  0  0  0  0  0  0  0  0  0  0  0
    0.4991    3.4331   -1.7669 H   0  0  0  0  0  0  0  0  0  0  0  0
    0.5849    1.0812   -0.9780 H   0  0  0  0  0  0  0  0  0  0  0  0
    2.1726    1.7762   -1.2600 H   0  0  0  0  0  0  0  0  0  0  0  0
    2.4797    2.1298    1.1948 H   0  0  0  0  0  0  0  0  0  0  0  0
    0.8551    1.5197    1.4963 H   0  0  0  0  0  0  0  0  0  0  0  0
    2.2945   -0.2534    1.9989 H   0  0  0  0  0  0  0  0  0  0  0  0
    1.5017   -0.6939    0.4880 H   0  0  0  0  0  0  0  0  0  0  0  0
    3.5928    0.1489   -0.7401 H   0  0  0  0  0  0  0  0  0  0  0  0
    4.3511    0.3868    0.8268 H   0  0  0  0  0  0  0  0  0  0  0  0
    5.0186   -1.7059   -0.2793 H   0  0  0  0  0  0  0  0  0  0  0  0
    3.3551   -2.2634   -0.3476 H   0  0  0  0  0  0  0  0  0  0  0  0
    4.7111   -1.5949    2.3254 H   0  0  0  0  0  0  0  0  0  0  0  0
    4.9877   -3.1471    1.5422 H   0  0  0  0  0  0  0  0  0  0  0  0
    1.6426   -4.0856    1.9885 H   0  0  0  0  0  0  0  0  0  0  0  0
  1  2  1  0
  2  3  1  0
  3  4  1  0
  4  5  1  0
  5  6  1  0
  6  7  1  0
  7  8  1  0
  8  9  1  0
  9 10  2  0
 10 11  1  0
 11 12  1  0
 12 13  1  0
 13 14  1  0
 14 15  1  0
 15 16  1  0
 16 17  1  0
 17 18  1  0
 18 19  2  0
 18 20  1  0
  1 21  1  0
  1 22  1  0
  1 23  1  0
  2 24  1  0
  2 25  1  0
  3 26  1  0
  3 27  1  0
  4 28  1  0
  4 29  1  0
  5 30  1  0
  5 31  1  0
  6 32  1  0
  6 33  1  0
  7 34  1  0
  7 35  1  0
  8 36  1  0
  8 37  1  0
  9 38  1  0
 10 39  1  0
 11 40  1  0
 11 41  1  0
 12 42  1  0
 12 43  1  0
 13 44  1  0
 13 45  1  0
 14 46  1  0
 14 47  1  0
 15 48  1  0
 15 49  1  0
 16 50  1  0
 16 51  1  0
 17 52  1  0
 17 53  1  0
 20 54  1  0
M  END
$$$$
linoleic acid
     RDKit          3D

 52 51  0  0  0  0  0  0  0  0999 V2000
   -1.8098    0.8967   -2.5051 C   0  0  0  0  0  0  0  0  0  0  0  0
   -1.8178   -0.4943   -3.1217 C   0  0  0  0  0  0  0  0  0  0  0  0
   -1.3387   -1.5863   -2.1636 C   0  0  0  0  0  0  0  0  0  0  0  0
   -2.2978   -1.8319   -0.9961 C   0  0  0  0  0  0  0  0  0  0  0  0
   -1.7662   -2.9276   -0.0691 C   0  0  0  0  0  0  0  0  0  0  0  0
   -2.6548   -3.1080    1.1292 C   0  0  0  0  0  0  0  0  0  0  0  0
   -2.3957   -2.7525    2.3994 C   0  0  0  0  0  0  0  0  0  0  0  0
   -1.1666   -2.0705    2.9294 C   0  0  0  0  0  0  0  0  0  0  0  0
   -1.5069   -0.7706    3.6020 C   0  0  0  0  0  0  0  0  0  0  0  0
   -1.4433    0.4654    3.0784 C   0  0  0  0  0  0  0  0  0  0  0  0
   -1.0613    0.8404    1.6742 C   0  0  0  0  0  0  0  0  0  0  0  0
    0.0283    1.9152    1.6087 C   0  0  0  0  0  0  0  0  0  0  0  0
    1.4025    1.4901    2.1375 C   0  0  0  0  0  0  0  0  0  0  0  0
    2.0429    0.2843    1.4416 C   0  0  0  0  0  0  0  0  0  0  0  0
    2.1484    0.3683   -0.0836 C   0  0  0  0  0  0  0  0  0  0  0  0
    2.9921    1.5459   -0.5727 C   0  0  0  0  0  0  0  0  0  0  0  0
    3.1240    1.5336   -2.0952 C   0  0  0  0  0  0  0  0  0  0  0  0
    3.9448    2.6925   -2.5921 C   0  0  0  0  0  0  0  0  0  0  0  0
    4.4757    3.5671   -1.9302 O   0  0  0  0  0  0  0  0  0  0  0  0
    4.0564    2.6873   -3.9354 O   0  0  0  0  0  0  0  0  0  0  0  0
   -2.0691    1.6438   -3.2622 H   0  0  0  0  0  0  0  0  0  0  0  0
   -2.5384    0.9821   -1.6939 H   0  0  0  0  0  0  0  0  0  0  0  0
   -0.8203    1.1463   -2.1094 H   0  0  0  0  0  0  0  0  0  0  0  0
   -1.1580   -0.4878   -3.9976 H   0  0  0  0  0  0  0  0  0  0  0  0
   -2.8251   -0.7289   -3.4848 H   0  0  0  0  0  0  0  0  0  0  0  0
   -1.2238   -2.5184   -2.7305 H   0  0  0  0  0  0  0  0  0  0  0  0
   -0.3445   -1.3252   -1.7811 H   0  0  0  0  0  0  0  0  0  0  0  0
   -2.4383   -0.9084   -0.4249 H   0  0  0  0  0  0  0  0  0  0  0  0
   -3.2830   -2.1191   -1.3844 H   0  0  0  0  0  0  0  0  0  0  0  0
   -0.7371   -2.6994    0.2240 H   0  0  0  0  0  0  0  0  0  0  0  0
   -1.7213   -3.8802   -0.6111 H   0  0  0  0  0  0  0  0  0  0  0  0
   -3.6121   -3.5874    0.9257 H   0  0  0  0  0  0  0  0  0  0  0  0
   -3.1580   -2.9746    3.1459 H   0  0  0  0  0  0  0  0  0  0  0  0
   -0.4094   -1.9206    2.1583 H   0  0  0  0  0  0  0  0  0  0  0  0
   -0.6973   -2.7280    3.6716 H   0  0  0  0  0  0  0  0  0  0  0  0
   -1.8417   -0.8625    4.6347 H   0  0  0  0  0  0  0  0  0  0  0  0
   -1.7399    1.2972    3.7170 H   0  0  0  0  0  0  0  0  0  0  0  0
   -1.9600    1.2399    1.1874 H   0  0  0  0  0  0  0  0  0  0  0  0
   -0.7603   -0.0286    1.0847 H   0  0  0  0  0  0  0  0  0  0  0  0
    0.1253    2.2504    0.5693 H   0  0  0  0  0  0  0  0  0  0  0  0
   -0.3001    2.7965    2.1752 H   0  0  0  0  0  0  0  0  0  0  0  0
    1.3276    1.2705    3.2096 H   0  0  0  0  0  0  0  0  0  0  0  0
    2.0807    2.3487    2.0593 H   0  0  0  0  0  0  0  0  0  0  0  0
    1.4826   -0.6206    1.6993 H   0  0  0  0  0  0  0  0  0  0  0  0
    3.0476    0.1410    1.8591 H   0  0  0  0  0  0  0  0  0  0  0  0
    1.1482    0.4181   -0.5275 H   0  0  0  0  0  0  0  0  0  0  0  0
    2.5966   -0.5663   -0.4442 H   0  0  0  0  0  0  0  0  0  0  0  0
    3.9881    1.5031   -0.1148 H   0  0  0  0  0  0  0  0  0  0  0  0
    2.5401    2.4937   -0.2585 H   0  0  0  0  0  0  0  0  0  0  0  0
    2.1309    1.5962   -2.5539 H   0  0  0  0  0  0  0  0  0  0  0  0
    3.6099    0.6066   -2.4192 H   0  0  0  0  0  0  0  0  0  0  0  0
    4.6038    3.4768   -4.1300 H   0  0  0  0  0  0  0  0  0  0  0  0
  1  2  1  0
  2  3  1  0
  3  4  1  0
  4  5  1  0
  5  6  1  0
  6  7  2  0
  7  8  1  0
  8  9  1  0
  9 10  2  0
 10 11  1  0
 11 12  1  0
 12 13  1  0
 13 14  1  0
 14 15  1  0
 15 16  1  0
 16 17  1  0
 17 18  1  0
 18 19  2  0
 18 20  1  0
  1 21  1  0
  1 22  1  0
  1 23  1  0
  2 24  1  0
  2 25  1  0
  3 26  1  0
  3 27  1  0
  4 28  1  0
  4 29  1  0
  5 30  1  0
  5 31  1  0
  6 32  1  0
  7 33  1  0
  8 34  1  0
  8 35  1  0
  9 36  1  0
 10 37  1  0
 11 38  1  0
 11 39  1  0
 12 40  1  0
 12 41  1  0
 13 42  1  0
 13 43  1  0
 14 44  1  0
 14 45  1  0
 15 46  1  0
 15 47  1  0
 16 48  1  0
 16 49  1  0
 17 50  1  0
 17 51  1  0
 20 52  1  0
M  END
$$$$
stearic acid
     RDKit          3D

 56 55  0  0  0  0  0  0  0  0999 V2000
   -5.3700   -3.7261    1.3701 C   0  0  0  0  0  0  0  0  0  0  0  0
   -5.7029   -2.2540    1.5598 C   0  0  0  0  0  0  0  0  0  0  0  0
   -4.5543   -1.5060    2.2371 C   0  0  0  0  0  0  0  0  0  0  0  0
   -4.8804   -0.0417    2.5457 C   0  0  0  0  0  0  0  0  0  0  0  0
   -5.2165    0.8347    1.3346 C   0  0  0  0  0  0  0  0  0  0  0  0
   -4.1576    0.8758    0.2289 C   0  0  0  0  0  0  0  0  0  0  0  0
   -2.8059    1.4150    0.7015 C   0  0  0  0  0  0  0  0  0  0  0  0
   -1.8180    1.5299   -0.4626 C   0  0  0  0  0  0  0  0  0  0  0  0
   -0.4631    2.0594    0.0118 C   0  0  0  0  0  0  0  0  0  0  0  0
    0.5323    2.2928   -1.1287 C   0  0  0  0  0  0  0  0  0  0  0  0
    0.9039    1.0537   -1.9493 C   0  0  0  0  0  0  0  0  0  0  0  0
    1.4798   -0.1211   -1.1523 C   0  0  0  0  0  0  0  0  0  0  0  0
    2.7204    0.1891   -0.3074 C   0  0  0  0  0  0  0  0  0  0  0  0
    3.9188    0.6548   -1.1375 C   0  0  0  0  0  0  0  0  0  0  0  0
    5.1588    0.9688   -0.2932 C   0  0  0  0  0  0  0  0  0  0  0  0
    5.7243   -0.1941    0.5309 C   0  0  0  0  0  0  0  0  0  0  0  0
    6.0947   -1.4348   -0.2762 C   0  0  0  0  0  0  0  0  0  0  0  0
    7.1687   -1.1639   -1.2908 C   0  0  0  0  0  0  0  0  0  0  0  0
    7.0329   -1.1683   -2.5026 O   0  0  0  0  0  0  0  0  0  0  0  0
    8.3657   -0.9059   -0.7324 O   0  0  0  0  0  0  0  0  0  0  0  0
   -5.1847   -4.2141    2.3323 H   0  0  0  0  0  0  0  0  0  0  0  0
   -6.2023   -4.2429    0.8822 H   0  0  0  0  0  0  0  0  0  0  0  0
   -4.4799   -3.8491    0.7447 H   0  0  0  0  0  0  0  0  0  0  0  0
   -5.9186   -1.8152    0.5798 H   0  0  0  0  0  0  0  0  0  0  0  0
   -6.6127   -2.1664    2.1647 H   0  0  0  0  0  0  0  0  0  0  0  0
   -4.3118   -2.0054    3.1837 H   0  0  0  0  0  0  0  0  0  0  0  0
   -3.6521   -1.5691    1.6180 H   0  0  0  0  0  0  0  0  0  0  0  0
   -5.7298   -0.0077    3.2398 H   0  0  0  0  0  0  0  0  0  0  0  0
   -4.0344    0.3974    3.0878 H   0  0  0  0  0  0  0  0  0  0  0  0
   -6.1648    0.5007    0.8972 H   0  0  0  0  0  0  0  0  0  0  0  0
   -5.3954    1.8573    1.6906 H   0  0  0  0  0  0  0  0  0  0  0  0
   -4.0290   -0.1216   -0.2068 H   0  0  0  0  0  0  0  0  0  0  0  0
   -4.5355    1.5166   -0.5778 H   0  0  0  0  0  0  0  0  0  0  0  0
   -2.3826    0.7526    1.4649 H   0  0  0  0  0  0  0  0  0  0  0  0
   -2.9448    2.3993    1.1646 H   0  0  0  0  0  0  0  0  0  0  0  0
   -2.2273    2.2008   -1.2274 H   0  0  0  0  0  0  0  0  0  0  0  0
   -1.6956    0.5443   -0.9253 H   0  0  0  0  0  0  0  0  0  0  0  0
   -0.6146    3.0152    0.5293 H   0  0  0  0  0  0  0  0  0  0  0  0
   -0.0349    1.3743    0.7522 H   0  0  0  0  0  0  0  0  0  0  0  0
    1.4429    2.7387   -0.7115 H   0  0  0  0  0  0  0  0  0  0  0  0
    0.1166    3.0446   -1.8116 H   0  0  0  0  0  0  0  0  0  0  0  0
    1.6203    1.3532   -2.7236 H   0  0  0  0  0  0  0  0  0  0  0  0
    0.0199    0.7013   -2.4943 H   0  0  0  0  0  0  0  0  0  0  0  0
    0.7028   -0.5263   -0.4931 H   0  0  0  0  0  0  0  0  0  0  0  0
    1.7249   -0.9266   -1.8563 H   0  0  0  0  0  0  0  0  0  0  0  0
    2.4813    0.9397    0.4542 H   0  0  0  0  0  0  0  0  0  0  0  0
    2.9840   -0.7270    0.2334 H   0  0  0  0  0  0  0  0  0  0  0  0
    3.6548    1.5690   -1.6813 H   0  0  0  0  0  0  0  0  0  0  0  0
    4.1602   -0.0964   -1.8977 H   0  0  0  0  0  0  0  0  0  0  0  0
    5.9421    1.3506   -0.9596 H   0  0  0  0  0  0  0  0  0  0  0  0
    4.9194    1.7911    0.3929 H   0  0  0  0  0  0  0  0  0  0  0  0
    5.0036   -0.4787    1.3061 H   0  0  0  0  0  0  0  0  0  0  0  0
    6.6118    0.1696    1.0642 H   0  0  0  0  0  0  0  0  0  0  0  0
    5.2226   -1.8480   -0.7935 H   0  0  0  0  0  0  0  0  0  0  0  0
    6.4545   -2.2264    0.3916 H   0  0  0  0  0  0  0  0  0  0  0  0
    8.9572   -0.7535   -1.4990 H   0  0  0  0  0  0  0  0  0  0  0  0
  1  2  1  0
  2  3  1  0
  3  4  1  0
  4  5  1  0
  5  6  1  0
  6  7  1  0
  7  8  1  0
  8  9  1  0
  9 10  1  0
 10 11  1  0
 11 12  1  0
 12 13  1  0
 13 14  1  0
 14 15  1  0
 15 16  1  0
 16 17  1  0
 17 18  1  0
 18 19  2  0
 18 20  1  0
  1 21  1  0
  1 22  1  0
  1 23  1  0
  2 24  1  0
  2 25  1  0
  3 26  1  0
  3 27  1  0
  4 28  1  0
  4 29  1  0
  5 30  1  0
  5 31  1  0
  6 32  1  0
  6 33  1  0
  7 34  1  0
  7 35  1  0
  8 36  1  0
  8 37  1  0
  9 38  1  0
  9 39  1  0
 10 40  1  0
 10 41  1  0
 11 42  1  0
 11 43  1  0
 12 44  1  0
 12 45  1  0
 13 46  1  0
 13 47  1  0
 14 48  1  0
 14 49  1  0
 15 50  1  0
 15 51  1  0
 16 52  1  0
 16 53  1  0
 17 54  1  0
 17 55  1  0
 20 56  1  0
M  END
$$$$
octacosanoic acid
     RDKit          3D

 86 85  0  0  0  0  0  0  0  0999 V2000
  -11.4836    3.3943    1.2117 C   0  0  0  0  0  0  0  0  0  0  0  0
  -10.3128    2.6448    1.8275 C   0  0  0  0  0  0  0  0  0  0  0  0
  -10.0440    1.3283    1.0975 C   0  0  0  0  0  0  0  0  0  0  0  0
   -8.8626    0.5814    1.7200 C   0  0  0  0  0  0  0  0  0  0  0  0
   -8.6137   -0.7935    1.0931 C   0  0  0  0  0  0  0  0  0  0  0  0
   -8.2922   -0.7939   -0.4050 C   0  0  0  0  0  0  0  0  0  0  0  0
   -7.1087    0.0791   -0.8358 C   0  0  0  0  0  0  0  0  0  0  0  0
   -5.7825   -0.3385   -0.1961 C   0  0  0  0  0  0  0  0  0  0  0  0
   -4.5996    0.5374   -0.6234 C   0  0  0  0  0  0  0  0  0  0  0  0
   -4.2718    0.5327   -2.1198 C   0  0  0  0  0  0  0  0  0  0  0  0
   -3.9947   -0.8433   -2.7336 C   0  0  0  0  0  0  0  0  0  0  0  0
   -2.8703   -1.6497   -2.0765 C   0  0  0  0  0  0  0  0  0  0  0  0
   -1.5074   -0.9547   -2.1371 C   0  0  0  0  0  0  0  0  0  0  0  0
   -0.4065   -1.8491   -1.5606 C   0  0  0  0  0  0  0  0  0  0  0  0
    0.9988   -1.2532   -1.6952 C   0  0  0  0  0  0  0  0  0  0  0  0
    1.2148   -0.0064   -0.8340 C   0  0  0  0  0  0  0  0  0  0  0  0
    2.6158    0.5988   -0.9762 C   0  0  0  0  0  0  0  0  0  0  0  0
    3.7901   -0.3156   -0.6091 C   0  0  0  0  0  0  0  0  0  0  0  0
    3.7582   -0.7972    0.8414 C   0  0  0  0  0  0  0  0  0  0  0  0
    4.9092   -1.7402    1.2140 C   0  0  0  0  0  0  0  0  0  0  0  0
    6.3030   -1.1062    1.1364 C   0  0  0  0  0  0  0  0  0  0  0  0
    7.0494   -1.4752   -0.1504 C   0  0  0  0  0  0  0  0  0  0  0  0
    8.3645   -0.7087   -0.3263 C   0  0  0  0  0  0  0  0  0  0  0  0
    9.4132   -1.0538    0.7336 C   0  0  0  0  0  0  0  0  0  0  0  0
   10.7598   -0.3659    0.4938 C   0  0  0  0  0  0  0  0  0  0  0  0
   10.7666    1.1640    0.6141 C   0  0  0  0  0  0  0  0  0  0  0  0
   10.4629    1.6823    2.0201 C   0  0  0  0  0  0  0  0  0  0  0  0
    8.9921    1.8739    2.2730 C   0  0  0  0  0  0  0  0  0  0  0  0
    8.1739    2.3574    1.5096 O   0  0  0  0  0  0  0  0  0  0  0  0
    8.6247    1.4766    3.5061 O   0  0  0  0  0  0  0  0  0  0  0  0
  -11.2865    3.6360    0.1624 H   0  0  0  0  0  0  0  0  0  0  0  0
  -11.6584    4.3316    1.7491 H   0  0  0  0  0  0  0  0  0  0  0  0
  -12.4004    2.7982    1.2610 H   0  0  0  0  0  0  0  0  0  0  0  0
   -9.4199    3.2797    1.7907 H   0  0  0  0  0  0  0  0  0  0  0  0
  -10.5281    2.4481    2.8842 H   0  0  0  0  0  0  0  0  0  0  0  0
  -10.9399    0.6970    1.1368 H   0  0  0  0  0  0  0  0  0  0  0  0
   -9.8414    1.5397    0.0416 H   0  0  0  0  0  0  0  0  0  0  0  0
   -7.9571    1.1953    1.6541 H   0  0  0  0  0  0  0  0  0  0  0  0
   -9.0565    0.4350    2.7902 H   0  0  0  0  0  0  0  0  0  0  0  0
   -7.7995   -1.2842    1.6395 H   0  0  0  0  0  0  0  0  0  0  0  0
   -9.5001   -1.4205    1.2533 H   0  0  0  0  0  0  0  0  0  0  0  0
   -8.0986   -1.8289   -0.7142 H   0  0  0  0  0  0  0  0  0  0  0  0
   -9.1802   -0.4765   -0.9649 H   0  0  0  0  0  0  0  0  0  0  0  0
   -7.3152    1.1318   -0.6124 H   0  0  0  0  0  0  0  0  0  0  0  0
   -7.0283    0.0052   -1.9264 H   0  0  0  0  0  0  0  0  0  0  0  0
   -5.5754   -1.3903   -0.4227 H   0  0  0  0  0  0  0  0  0  0  0  0
   -5.8639   -0.2677    0.8946 H   0  0  0  0  0  0  0  0  0  0  0  0
   -3.7135    0.2249   -0.0580 H   0  0  0  0  0  0  0  0  0  0  0  0
   -4.7991    1.5727   -0.3187 H   0  0  0  0  0  0  0  0  0  0  0  0
   -3.4060    1.1849   -2.2863 H   0  0  0  0  0  0  0  0  0  0  0  0
   -5.0954    0.9993   -2.6735 H   0  0  0  0  0  0  0  0  0  0  0  0
   -4.9128   -1.4424   -2.7110 H   0  0  0  0  0  0  0  0  0  0  0  0
   -3.7546   -0.7034   -3.7952 H   0  0  0  0  0  0  0  0  0  0  0  0
   -3.1258   -1.8751   -1.0349 H   0  0  0  0  0  0  0  0  0  0  0  0
   -2.8024   -2.6159   -2.5923 H   0  0  0  0  0  0  0  0  0  0  0  0
   -1.2696   -0.7031   -3.1775 H   0  0  0  0  0  0  0  0  0  0  0  0
   -1.5505   -0.0173   -1.5744 H   0  0  0  0  0  0  0  0  0  0  0  0
   -0.4184   -2.8122   -2.0860 H   0  0  0  0  0  0  0  0  0  0  0  0
   -0.6164   -2.0629   -0.5054 H   0  0  0  0  0  0  0  0  0  0  0  0
    1.7142   -2.0290   -1.3999 H   0  0  0  0  0  0  0  0  0  0  0  0
    1.2002   -1.0181   -2.7472 H   0  0  0  0  0  0  0  0  0  0  0  0
    0.4951    0.7683   -1.1218 H   0  0  0  0  0  0  0  0  0  0  0  0
    1.0097   -0.2395    0.2169 H   0  0  0  0  0  0  0  0  0  0  0  0
    2.6652    1.5023   -0.3553 H   0  0  0  0  0  0  0  0  0  0  0  0
    2.7510    0.9321   -2.0129 H   0  0  0  0  0  0  0  0  0  0  0  0
    4.7094    0.2562   -0.7803 H   0  0  0  0  0  0  0  0  0  0  0  0
    3.8259   -1.1743   -1.2885 H   0  0  0  0  0  0  0  0  0  0  0  0
    3.7651    0.0685    1.5149 H   0  0  0  0  0  0  0  0  0  0  0  0
    2.8225   -1.3351    1.0310 H   0  0  0  0  0  0  0  0  0  0  0  0
    4.8601   -2.6514    0.6060 H   0  0  0  0  0  0  0  0  0  0  0  0
    4.7399   -2.0549    2.2520 H   0  0  0  0  0  0  0  0  0  0  0  0
    6.2378   -0.0177    1.2474 H   0  0  0  0  0  0  0  0  0  0  0  0
    6.8852   -1.4740    1.9898 H   0  0  0  0  0  0  0  0  0  0  0  0
    6.4193   -1.2682   -1.0216 H   0  0  0  0  0  0  0  0  0  0  0  0
    7.2489   -2.5539   -0.1616 H   0  0  0  0  0  0  0  0  0  0  0  0
    8.1529    0.3652   -0.3254 H   0  0  0  0  0  0  0  0  0  0  0  0
    8.7699   -0.9472   -1.3175 H   0  0  0  0  0  0  0  0  0  0  0  0
    9.5799   -2.1384    0.7201 H   0  0  0  0  0  0  0  0  0  0  0  0
    9.0492   -0.8137    1.7365 H   0  0  0  0  0  0  0  0  0  0  0  0
   11.4893   -0.7772    1.2029 H   0  0  0  0  0  0  0  0  0  0  0  0
   11.1225   -0.6363   -0.5059 H   0  0  0  0  0  0  0  0  0  0  0  0
   10.0949    1.6088   -0.1279 H   0  0  0  0  0  0  0  0  0  0  0  0
   11.7777    1.4995    0.3489 H   0  0  0  0  0  0  0  0  0  0  0  0
   10.8879    1.0098    2.7737 H   0  0  0  0  0  0  0  0  0  0  0  0
   10.9294    2.6643    2.1609 H   0  0  0  0  0  0  0  0  0  0  0  0
    7.6641    1.6687    3.5395 H   0  0  0  0  0  0  0  0  0  0  0  0
  1  2  1  0
  2  3  1  0
  3  4  1  0
  4  5  1  0
  5  6  1  0
  6  7  1  0
  7  8  1  0
  8  9  1  0
  9 10  1  0
 10 11  1  0
 11 12  1  0
 12 13  1  0
 13 14  1  0
 14 15  1  0
 15 16  1  0
 16 17  1  0
 17 18  1  0
 18 19  1  0
 19 20  1  0
 20 21  1  0
 21 22  1  0
 22 23  1  0
 23 24  1  0
 24 25  1  0
 25 26  1  0
 26 27  1  0
 27 28  1  0
 28 29  2  0
 28 30  1  0
  1 31  1  0
  1 32  1  0
  1 33  1  0
  2 34  1  0
  2 35  1  0
  3 36  1  0
  3 37  1  0
  4 38  1  0
  4 39  1  0
  5 40  1  0
  5 41  1  0
  6 42  1  0
  6 43  1  0
  7 44  1  0
  7 45  1  0
  8 46  1  0
  8 47  1  0
  9 48  1  0
  9 49  1  0
 10 50  1  0
 10 51  1  0
 11 52  1  0
 11 53  1  0
 12 54  1  0
 12 55  1  0
 13 56  1  0
 13 57  1  0
 14 58  1  0
 14 59  1  0
 15 60  1  0
 15 61  1  0
 16 62  1  0
 16 63  1  0
 17 64  1  0
 17 65  1  0
 18 66  1  0
 18 67  1  0
 19 68  1  0
 19 69  1  0
 20 70  1  0
 20 71  1  0
 21 72  1  0
 21 73  1  0
 22 74  1  0
 22 75  1  0
 23 76  1  0
 23 77  1  0
 24 78  1  0
 24 79  1  0
 25 80  1  0
 25 81  1  0
 26 82  1  0
 26 83  1  0
 27 84  1  0
 27 85  1  0
 30 86  1  0
M  END
$$$$
4-hydroxymellein
     RDKit          3D

 24 25  0  0  0  0  0  0  0  0999 V2000
   -2.3994    0.0537    1.2312 C   0  0  0  0  0  0  0  0  0  0  0  0
   -2.0890    0.2504   -0.2502 C   0  0  0  0  0  0  0  0  0  0  0  0
   -1.1913   -0.8391   -0.8472 C   0  0  0  0  0  0  0  0  0  0  0  0
    0.2229   -0.6664   -0.3791 C   0  0  0  0  0  0  0  0  0  0  0  0
    0.6925    0.6148   -0.0510 C   0  0  0  0  0  0  0  0  0  0  0  0
    2.0187    0.7800    0.3722 C   0  0  0  0  0  0  0  0  0  0  0  0
    2.8678   -0.3191    0.4767 C   0  0  0  0  0  0  0  0  0  0  0  0
    2.4053   -1.5907    0.1412 C   0  0  0  0  0  0  0  0  0  0  0  0
    1.0906   -1.7649   -0.2918 C   0  0  0  0  0  0  0  0  0  0  0  0
    2.5617    1.9941    0.6986 O   0  0  0  0  0  0  0  0  0  0  0  0
   -0.1991    1.7930   -0.1859 C   0  0  0  0  0  0  0  0  0  0  0  0
    0.2531    2.9275   -0.0823 O   0  0  0  0  0  0  0  0  0  0  0  0
   -1.5086    1.5610   -0.4553 O   0  0  0  0  0  0  0  0  0  0  0  0
   -1.1866   -0.7601   -2.2719 O   0  0  0  0  0  0  0  0  0  0  0  0
   -2.8942   -0.9067    1.4048 H   0  0  0  0  0  0  0  0  0  0  0  0
   -1.4983    0.0971    1.8510 H   0  0  0  0  0  0  0  0  0  0  0  0
   -3.0582    0.8536    1.5866 H   0  0  0  0  0  0  0  0  0  0  0  0
   -3.0369    0.2611   -0.8015 H   0  0  0  0  0  0  0  0  0  0  0  0
   -1.5744   -1.8285   -0.5733 H   0  0  0  0  0  0  0  0  0  0  0  0
    3.8943   -0.1808    0.8073 H   0  0  0  0  0  0  0  0  0  0  0  0
    3.0747   -2.4452    0.2092 H   0  0  0  0  0  0  0  0  0  0  0  0
    0.7470   -2.7604   -0.5678 H   0  0  0  0  0  0  0  0  0  0  0  0
    1.9045    2.6978    0.4989 H   0  0  0  0  0  0  0  0  0  0  0  0
   -1.0970    0.1778   -2.5202 H   0  0  0  0  0  0  0  0  0  0  0  0
  1  2  1  0
  2  3  1  0
  3  4  1  0
  4  5  1  0
  5  6  2  0
  6  7  1  0
  7  8  2  0
  8  9  1  0
  6 10  1  0
  5 11  1  0
 11 12  2  0
 11 13  1  0
  3 14  1  0
 13  2  1  0
  9  4  2  0
  1 15  1  0
  1 16  1  0
  1 17  1  0
  2 18  1  0
  3 19  1  0
  7 20  1  0
  8 21  1  0
  9 22  1  0
 10 23  1  0
 14 24  1  0
M  END
$$$$
vanillic acid
     RDKit          3D

 20 20  0  0  0  0  0  0  0  0999 V2000
   -2.4514    1.5837    0.3704 C   0  0  0  0  0  0  0  0  0  0  0  0
   -2.1862    0.2138    0.6521 O   0  0  0  0  0  0  0  0  0  0  0  0
   -0.9245   -0.2407    0.3647 C   0  0  0  0  0  0  0  0  0  0  0  0
   -0.7046   -1.5929    0.6564 C   0  0  0  0  0  0  0  0  0  0  0  0
    0.5217   -2.2018    0.4218 C   0  0  0  0  0  0  0  0  0  0  0  0
    1.5621   -1.4482   -0.1182 C   0  0  0  0  0  0  0  0  0  0  0  0
    1.3649   -0.0926   -0.4181 C   0  0  0  0  0  0  0  0  0  0  0  0
    0.1190    0.5112   -0.1759 C   0  0  0  0  0  0  0  0  0  0  0  0
    2.5034    0.6662   -0.9914 C   0  0  0  0  0  0  0  0  0  0  0  0
    3.6102    0.2211   -1.2311 O   0  0  0  0  0  0  0  0  0  0  0  0
    2.2020    1.9534   -1.2392 O   0  0  0  0  0  0  0  0  0  0  0  0
   -1.7101   -2.3542    1.1872 O   0  0  0  0  0  0  0  0  0  0  0  0
   -2.3497    1.7931   -0.6996 H   0  0  0  0  0  0  0  0  0  0  0  0
   -1.8090    2.2404    0.9664 H   0  0  0  0  0  0  0  0  0  0  0  0
   -3.4889    1.7873    0.6525 H   0  0  0  0  0  0  0  0  0  0  0  0
    0.6638   -3.2524    0.6578 H   0  0  0  0  0  0  0  0  0  0  0  0
    2.5253   -1.9196   -0.3042 H   0  0  0  0  0  0  0  0  0  0  0  0
   -0.0110    1.5609   -0.4155 H   0  0  0  0  0  0  0  0  0  0  0  0
    3.0343    2.3188   -1.6074 H   0  0  0  0  0  0  0  0  0  0  0  0
   -2.4714   -1.7475    1.2713 H   0  0  0  0  0  0  0  0  0  0  0  0
  1  2  1  0
  2  3  1  0
  3  4  2  0
  4  5  1  0
  5  6  2  0
  6  7  1  0
  7  8  2  0
  7  9  1  0
  9 10  2  0
  9 11  1  0
  4 12  1  0
  8  3  1  0
  1 13  1  0
  1 14  1  0
  1 15  1  0
  5 16  1  0
  6 17  1  0
  8 18  1  0
 11 19  1  0
 12 20  1  0
M  END
$$$$
scopoletin
     RDKit          3D

 22 23  0  0  0  0  0  0  0  0999 V2000
    2.8489    1.7049    1.3994 C   0  0  0  0  0  0  0  0  0  0  0  0
    1.7363    2.2044    0.6722 O   0  0  0  0  0  0  0  0  0  0  0  0
    0.7719    1.3095    0.2889 C   0  0  0  0  0  0  0  0  0  0  0  0
   -0.3132    1.8424   -0.4288 C   0  0  0  0  0  0  0  0  0  0  0  0
   -1.3546    1.0303   -0.8714 C   0  0  0  0  0  0  0  0  0  0  0  0
   -1.3017   -0.3303   -0.5881 C   0  0  0  0  0  0  0  0  0  0  0  0
   -0.2413   -0.8910    0.1207 C   0  0  0  0  0  0  0  0  0  0  0  0
    0.7994   -0.0647    0.5603 C   0  0  0  0  0  0  0  0  0  0  0  0
   -0.2506   -2.3220    0.3817 C   0  0  0  0  0  0  0  0  0  0  0  0
   -1.2691   -3.0661   -0.0605 C   0  0  0  0  0  0  0  0  0  0  0  0
   -2.4001   -2.4938   -0.8117 C   0  0  0  0  0  0  0  0  0  0  0  0
   -3.3170   -3.2070   -1.2017 O   0  0  0  0  0  0  0  0  0  0  0  0
   -2.3691   -1.1264   -1.0485 O   0  0  0  0  0  0  0  0  0  0  0  0
   -0.3407    3.1860   -0.6945 O   0  0  0  0  0  0  0  0  0  0  0  0
    3.5108    2.5480    1.6198 H   0  0  0  0  0  0  0  0  0  0  0  0
    3.4176    0.9827    0.8044 H   0  0  0  0  0  0  0  0  0  0  0  0
    2.5342    1.2710    2.3541 H   0  0  0  0  0  0  0  0  0  0  0  0
   -2.1953    1.4328   -1.4255 H   0  0  0  0  0  0  0  0  0  0  0  0
    1.6214   -0.5086    1.1115 H   0  0  0  0  0  0  0  0  0  0  0  0
    0.5706   -2.7671    0.9326 H   0  0  0  0  0  0  0  0  0  0  0  0
   -1.3134   -4.1344    0.1131 H   0  0  0  0  0  0  0  0  0  0  0  0
   -1.1450    3.3995   -1.1927 H   0  0  0  0  0  0  0  0  0  0  0  0
  1  2  1  0
  2  3  1  0
  3  4  1  0
  4  5  2  0
  5  6  1  0
  6  7  2  0
  7  8  1  0
  7  9  1  0
  9 10  2  0
 10 11  1  0
 11 12  2  0
 11 13  1  0
  4 14  1  0
  8  3  2  0
 13  6  1  0
  1 15  1  0
  1 16  1  0
  1 17  1  0
  5 18  1  0
  8 19  1  0
  9 20  1  0
 10 21  1  0
 14 22  1  0
M  END
$$$$
squalene
     RDKit          3D

 80 79  0  0  0  0  0  0  0  0999 V2000
    8.9080   -0.9227    2.3128 C   0  0  0  0  0  0  0  0  0  0  0  0
    7.6675   -0.3102    2.9022 C   0  0  0  0  0  0  0  0  0  0  0  0
    6.6240    0.1606    2.1915 C   0  0  0  0  0  0  0  0  0  0  0  0
    6.4450    0.1389    0.6967 C   0  0  0  0  0  0  0  0  0  0  0  0
    6.7072    1.5184    0.0819 C   0  0  0  0  0  0  0  0  0  0  0  0
    6.4759    1.5398   -1.4187 C   0  0  0  0  0  0  0  0  0  0  0  0
    5.3371    2.0612   -1.9174 C   0  0  0  0  0  0  0  0  0  0  0  0
    4.9336    2.1992   -3.3617 C   0  0  0  0  0  0  0  0  0  0  0  0
    3.9415    1.1164   -3.8110 C   0  0  0  0  0  0  0  0  0  0  0  0
    2.5925    1.1669   -3.1107 C   0  0  0  0  0  0  0  0  0  0  0  0
    2.2324    0.1844   -2.2605 C   0  0  0  0  0  0  0  0  0  0  0  0
    0.9635    0.0803   -1.4582 C   0  0  0  0  0  0  0  0  0  0  0  0
    0.0164   -0.9695   -2.0436 C   0  0  0  0  0  0  0  0  0  0  0  0
   -1.2557   -1.0725   -1.2425 C   0  0  0  0  0  0  0  0  0  0  0  0
   -1.5825   -2.0136   -0.3329 C   0  0  0  0  0  0  0  0  0  0  0  0
   -2.9172   -2.0592    0.4028 C   0  0  0  0  0  0  0  0  0  0  0  0
   -3.9557   -0.9790    0.0681 C   0  0  0  0  0  0  0  0  0  0  0  0
   -5.2341   -1.1890    0.8365 C   0  0  0  0  0  0  0  0  0  0  0  0
   -5.6743   -0.4980    1.9074 C   0  0  0  0  0  0  0  0  0  0  0  0
   -7.0168   -0.8346    2.5375 C   0  0  0  0  0  0  0  0  0  0  0  0
   -8.0836    0.2606    2.3914 C   0  0  0  0  0  0  0  0  0  0  0  0
   -8.5002    0.4894    0.9621 C   0  0  0  0  0  0  0  0  0  0  0  0
   -9.6425    0.1045    0.3599 C   0  0  0  0  0  0  0  0  0  0  0  0
  -10.7409   -0.6899    1.0102 C   0  0  0  0  0  0  0  0  0  0  0  0
   -9.9004    0.4505   -1.0836 C   0  0  0  0  0  0  0  0  0  0  0  0
   -4.9005    0.5995    2.5875 C   0  0  0  0  0  0  0  0  0  0  0  0
   -0.6551   -3.1318    0.0779 C   0  0  0  0  0  0  0  0  0  0  0  0
    1.7247    2.3427   -3.4702 C   0  0  0  0  0  0  0  0  0  0  0  0
    7.5923    0.9613   -2.2454 C   0  0  0  0  0  0  0  0  0  0  0  0
    7.6663   -0.2384    4.4070 C   0  0  0  0  0  0  0  0  0  0  0  0
    8.9668   -1.9831    2.5785 H   0  0  0  0  0  0  0  0  0  0  0  0
    8.9553   -0.8445    1.2242 H   0  0  0  0  0  0  0  0  0  0  0  0
    9.7983   -0.4194    2.7051 H   0  0  0  0  0  0  0  0  0  0  0  0
    5.7849    0.6013    2.7302 H   0  0  0  0  0  0  0  0  0  0  0  0
    7.0800   -0.6211    0.2316 H   0  0  0  0  0  0  0  0  0  0  0  0
    5.4132   -0.1711    0.4855 H   0  0  0  0  0  0  0  0  0  0  0  0
    6.0638    2.2621    0.5717 H   0  0  0  0  0  0  0  0  0  0  0  0
    7.7370    1.8376    0.2899 H   0  0  0  0  0  0  0  0  0  0  0  0
    4.5920    2.4396   -1.2165 H   0  0  0  0  0  0  0  0  0  0  0  0
    4.4995    3.1965   -3.5042 H   0  0  0  0  0  0  0  0  0  0  0  0
    5.8079    2.1717   -4.0198 H   0  0  0  0  0  0  0  0  0  0  0  0
    4.4069    0.1304   -3.6786 H   0  0  0  0  0  0  0  0  0  0  0  0
    3.7731    1.2175   -4.8911 H   0  0  0  0  0  0  0  0  0  0  0  0
    2.9329   -0.6332   -2.0874 H   0  0  0  0  0  0  0  0  0  0  0  0
    1.2365   -0.1973   -0.4317 H   0  0  0  0  0  0  0  0  0  0  0  0
    0.4573    1.0480   -1.3768 H   0  0  0  0  0  0  0  0  0  0  0  0
    0.5201   -1.9382   -2.1279 H   0  0  0  0  0  0  0  0  0  0  0  0
   -0.2552   -0.6919   -3.0707 H   0  0  0  0  0  0  0  0  0  0  0  0
   -1.9664   -0.2818   -1.4745 H   0  0  0  0  0  0  0  0  0  0  0  0
   -2.7075   -2.0125    1.4803 H   0  0  0  0  0  0  0  0  0  0  0  0
   -3.3669   -3.0436    0.2134 H   0  0  0  0  0  0  0  0  0  0  0  0
   -3.5436    0.0184    0.2521 H   0  0  0  0  0  0  0  0  0  0  0  0
   -4.2025   -1.0153   -1.0006 H   0  0  0  0  0  0  0  0  0  0  0  0
   -5.8663   -1.9820    0.4358 H   0  0  0  0  0  0  0  0  0  0  0  0
   -7.4114   -1.7733    2.1261 H   0  0  0  0  0  0  0  0  0  0  0  0
   -6.8548   -1.0284    3.6058 H   0  0  0  0  0  0  0  0  0  0  0  0
   -8.9432   -0.0023    3.0160 H   0  0  0  0  0  0  0  0  0  0  0  0
   -7.7136    1.2098    2.7980 H   0  0  0  0  0  0  0  0  0  0  0  0
   -7.7690    1.0471    0.3759 H   0  0  0  0  0  0  0  0  0  0  0  0
  -11.6482   -0.0825    1.0893 H   0  0  0  0  0  0  0  0  0  0  0  0
  -10.9710   -1.5756    0.4079 H   0  0  0  0  0  0  0  0  0  0  0  0
  -10.4860   -1.0464    2.0105 H   0  0  0  0  0  0  0  0  0  0  0  0
  -10.0155   -0.4619   -1.6779 H   0  0  0  0  0  0  0  0  0  0  0  0
   -9.0848    1.0334   -1.5245 H   0  0  0  0  0  0  0  0  0  0  0  0
  -10.8173    1.0425   -1.1726 H   0  0  0  0  0  0  0  0  0  0  0  0
   -3.8487    0.6281    2.2918 H   0  0  0  0  0  0  0  0  0  0  0  0
   -4.9136    0.4556    3.6733 H   0  0  0  0  0  0  0  0  0  0  0  0
   -5.3431    1.5746    2.3626 H   0  0  0  0  0  0  0  0  0  0  0  0
   -1.0510   -4.0932   -0.2653 H   0  0  0  0  0  0  0  0  0  0  0  0
    0.3591   -3.0247   -0.3131 H   0  0  0  0  0  0  0  0  0  0  0  0
   -0.5663   -3.1654    1.1693 H   0  0  0  0  0  0  0  0  0  0  0  0
    1.7142    2.4878   -4.5558 H   0  0  0  0  0  0  0  0  0  0  0  0
    0.6832    2.2156   -3.1646 H   0  0  0  0  0  0  0  0  0  0  0  0
    2.1063    3.2558   -3.0032 H   0  0  0  0  0  0  0  0  0  0  0  0
    8.5011    1.5587   -2.1190 H   0  0  0  0  0  0  0  0  0  0  0  0
    7.8094   -0.0649   -1.9329 H   0  0  0  0  0  0  0  0  0  0  0  0
    7.3660    0.9226   -3.3132 H   0  0  0  0  0  0  0  0  0  0  0  0
    7.7595   -1.2425    4.8335 H   0  0  0  0  0  0  0  0  0  0  0  0
    8.5065    0.3692    4.7587 H   0  0  0  0  0  0  0  0  0  0  0  0
    6.7466    0.2060    4.8017 H   0  0  0  0  0  0  0  0  0  0  0  0
  1  2  1  0
  2  3  2  3
  3  4  1  0
  4  5  1  0
  5  6  1  0
  6  7  2  0
  7  8  1  0
  8  9  1  0
  9 10  1  0
 10 11  2  0
 11 12  1  0
 12 13  1  0
 13 14  1  0
 14 15  2  0
 15 16  1  0
 16 17  1  0
 17 18  1  0
 18 19  2  0
 19 20  1  0
 20 21  1  0
 21 22  1  0
 22 23  2  3
 23 24  1  0
 23 25  1  0
 19 26  1  0
 15 27  1  0
 10 28  1  0
  6 29  1  0
  2 30  1  0
  1 31  1  0
  1 32  1  0
  1 33  1  0
  3 34  1  0
  4 35  1  0
  4 36  1  0
  5 37  1  0
  5 38  1  0
  7 39  1  0
  8 40  1  0
  8 41  1  0
  9 42  1  0
  9 43  1  0
 11 44  1  0
 12 45  1  0
 12 46  1  0
 13 47  1  0
 13 48  1  0
 14 49  1  0
 16 50  1  0
 16 51  1  0
 17 52  1  0
 17 53  1  0
 18 54  1  0
 20 55  1  0
 20 56  1  0
 21 57  1  0
 21 58  1  0
 22 59  1  0
 24 60  1  0
 24 61  1  0
 24 62  1  0
 25 63  1  0
 25 64  1  0
 25 65  1  0
 26 66  1  0
 26 67  1  0
 26 68  1  0
 27 69  1  0
 27 70  1  0
 27 71  1  0
 28 72  1  0
 28 73  1  0
 28 74  1  0
 29 75  1  0
 29 76  1  0
 29 77  1  0
 30 78  1  0
 30 79  1  0
 30 80  1  0
M  END
$$$$
phytol
     RDKit          3D

 61 60  0  0  0  0  0  0  0  0999 V2000
   -2.3998   -0.9759   -1.3356 C   0  0  0  0  0  0  0  0  0  0  0  0
   -2.4556   -1.4935    0.1024 C   0  0  1  0  0  0  0  0  0  0  0  0
   -1.2087   -2.3432    0.4405 C   0  0  0  0  0  0  0  0  0  0  0  0
    0.1231   -1.5811    0.4266 C   0  0  0  0  0  0  0  0  0  0  0  0
    1.3333   -2.4889    0.6954 C   0  0  0  0  0  0  0  0  0  0  0  0
    2.1029   -2.9920   -0.5438 C   0  0  1  0  0  0  0  0  0  0  0  0
    1.2301   -3.8746   -1.4402 C   0  0  0  0  0  0  0  0  0  0  0  0
    2.7677   -1.8893   -1.3981 C   0  0  0  0  0  0  0  0  0  0  0  0
    3.8075   -1.0343   -0.6578 C   0  0  0  0  0  0  0  0  0  0  0  0
    3.2532    0.3234   -0.2006 C   0  0  0  0  0  0  0  0  0  0  0  0
    4.2037    1.2678    0.5276 C   0  0  0  0  0  0  0  0  0  0  0  0
    5.4977    0.9810    0.7806 C   0  0  0  0  0  0  0  0  0  0  0  0
    6.5161    1.8077    1.4993 C   0  0  0  0  0  0  0  0  0  0  0  0
    7.5244    2.1725    0.5700 O   0  0  0  0  0  0  0  0  0  0  0  0
    3.5344    2.5595    0.9306 C   0  0  0  0  0  0  0  0  0  0  0  0
   -2.6786   -0.3714    1.1383 C   0  0  0  0  0  0  0  0  0  0  0  0
   -4.0229    0.3607    1.0050 C   0  0  0  0  0  0  0  0  0  0  0  0
   -3.9117    1.6787    0.2285 C   0  0  0  0  0  0  0  0  0  0  0  0
   -5.2309    2.4732    0.1813 C   0  0  0  0  0  0  0  0  0  0  0  0
   -6.3261    1.7382   -0.5931 C   0  0  0  0  0  0  0  0  0  0  0  0
   -4.9869    3.8462   -0.4504 C   0  0  0  0  0  0  0  0  0  0  0  0
   -2.1033   -1.7720   -2.0271 H   0  0  0  0  0  0  0  0  0  0  0  0
   -3.3835   -0.6224   -1.6600 H   0  0  0  0  0  0  0  0  0  0  0  0
   -1.6899   -0.1498   -1.4426 H   0  0  0  0  0  0  0  0  0  0  0  0
   -3.3138   -2.1770    0.1643 H   0  0  0  0  0  0  0  0  0  0  0  0
   -1.1666   -3.1829   -0.2611 H   0  0  0  0  0  0  0  0  0  0  0  0
   -1.3489   -2.7892    1.4340 H   0  0  0  0  0  0  0  0  0  0  0  0
    0.0943   -0.8295    1.2244 H   0  0  0  0  0  0  0  0  0  0  0  0
    0.2485   -1.0342   -0.5110 H   0  0  0  0  0  0  0  0  0  0  0  0
    2.0375   -1.9433    1.3351 H   0  0  0  0  0  0  0  0  0  0  0  0
    1.0192   -3.3536    1.2945 H   0  0  0  0  0  0  0  0  0  0  0  0
    2.9102   -3.6343   -0.1645 H   0  0  0  0  0  0  0  0  0  0  0  0
    0.4552   -3.2921   -1.9485 H   0  0  0  0  0  0  0  0  0  0  0  0
    0.7472   -4.6671   -0.8594 H   0  0  0  0  0  0  0  0  0  0  0  0
    1.8381   -4.3578   -2.2130 H   0  0  0  0  0  0  0  0  0  0  0  0
    3.2946   -2.3924   -2.2209 H   0  0  0  0  0  0  0  0  0  0  0  0
    2.0138   -1.2547   -1.8778 H   0  0  0  0  0  0  0  0  0  0  0  0
    4.2233   -1.5927    0.1889 H   0  0  0  0  0  0  0  0  0  0  0  0
    4.6368   -0.8460   -1.3523 H   0  0  0  0  0  0  0  0  0  0  0  0
    2.3940    0.1559    0.4565 H   0  0  0  0  0  0  0  0  0  0  0  0
    2.8732    0.8510   -1.0856 H   0  0  0  0  0  0  0  0  0  0  0  0
    5.9070    0.0285    0.4497 H   0  0  0  0  0  0  0  0  0  0  0  0
    6.9799    1.2150    2.2938 H   0  0  0  0  0  0  0  0  0  0  0  0
    6.1196    2.7156    1.9560 H   0  0  0  0  0  0  0  0  0  0  0  0
    7.0680    2.5784   -0.1870 H   0  0  0  0  0  0  0  0  0  0  0  0
    2.7391    2.3590    1.6562 H   0  0  0  0  0  0  0  0  0  0  0  0
    4.2133    3.2879    1.3772 H   0  0  0  0  0  0  0  0  0  0  0  0
    3.0871    3.0397    0.0534 H   0  0  0  0  0  0  0  0  0  0  0  0
   -1.8550    0.3511    1.1124 H   0  0  0  0  0  0  0  0  0  0  0  0
   -2.6538   -0.8319    2.1349 H   0  0  0  0  0  0  0  0  0  0  0  0
   -4.3825    0.5963    2.0149 H   0  0  0  0  0  0  0  0  0  0  0  0
   -4.7680   -0.3030    0.5547 H   0  0  0  0  0  0  0  0  0  0  0  0
   -3.5627    1.4927   -0.7925 H   0  0  0  0  0  0  0  0  0  0  0  0
   -3.1455    2.3006    0.7096 H   0  0  0  0  0  0  0  0  0  0  0  0
   -5.5836    2.6343    1.2079 H   0  0  0  0  0  0  0  0  0  0  0  0
   -5.9965    1.4896   -1.6075 H   0  0  0  0  0  0  0  0  0  0  0  0
   -6.6161    0.8103   -0.0914 H   0  0  0  0  0  0  0  0  0  0  0  0
   -7.2267    2.3567   -0.6729 H   0  0  0  0  0  0  0  0  0  0  0  0
   -4.2350    4.4070    0.1148 H   0  0  0  0  0  0  0  0  0  0  0  0
   -4.6345    3.7517   -1.4833 H   0  0  0  0  0  0  0  0  0  0  0  0
   -5.9071    4.4401   -0.4590 H   0  0  0  0  0  0  0  0  0  0  0  0
  1  2  1  0
  2  3  1  0
  3  4  1  0
  4  5  1  0
  5  6  1  0
  6  7  1  0
  6  8  1  0
  8  9  1  0
  9 10  1  0
 10 11  1  0
 11 12  2  0
 12 13  1  0
 13 14  1  0
 11 15  1  0
  2 16  1  0
 16 17  1  0
 17 18  1  0
 18 19  1  0
 19 20  1  0
 19 21  1  0
  1 22  1  0
  1 23  1  0
  1 24  1  0
  2 25  1  6
  3 26  1  0
  3 27  1  0
  4 28  1  0
  4 29  1  0
  5 30  1  0
  5 31  1  0
  6 32  1  1
  7 33  1  0
  7 34  1  0
  7 35  1  0
  8 36  1  0
  8 37  1  0
  9 38  1  0
  9 39  1  0
 10 40  1  0
 10 41  1  0
 12 42  1  0
 13 43  1  0
 13 44  1  0
 14 45  1  0
 15 46  1  0
 15 47  1  0
 15 48  1  0
 16 49  1  0
 16 50  1  0
 17 51  1  0
 17 52  1  0
 18 53  1  0
 18 54  1  0
 19 55  1  0
 20 56  1  0
 20 57  1  0
 20 58  1  0
 21 59  1  0
 21 60  1  0
 21 61  1  0
M  END
$$$$
doxorubicin
     RDKit          3D

 68 72  0  0  0  0  0  0  0  0999 V2000
   -3.6484   -0.9163   -5.2952 C   0  0  0  0  0  0  0  0  0  0  0  0
   -3.1694   -0.3065   -3.9778 C   0  0  1  0  0  0  0  0  0  0  0  0
   -3.8601   -0.8951   -2.7318 C   0  0  2  0  0  0  0  0  0  0  0  0
   -3.3429   -2.3073   -2.3714 C   0  0  2  0  0  0  0  0  0  0  0  0
   -1.9087   -2.5311   -2.8550 C   0  0  0  0  0  0  0  0  0  0  0  0
   -1.1549   -1.2082   -2.9692 C   0  0  1  0  0  0  0  0  0  0  0  0
   -1.7359   -0.3671   -3.9621 O   0  0  0  0  0  0  0  0  0  0  0  0
   -1.1273   -0.5644   -1.6989 O   0  0  0  0  0  0  0  0  0  0  0  0
   -0.1429    0.4655   -1.6026 C   0  0  1  0  0  0  0  0  0  0  0  0
   -0.7273    1.8520   -1.9125 C   0  0  0  0  0  0  0  0  0  0  0  0
   -1.7669    2.3401   -0.8827 C   0  0  1  0  0  0  0  0  0  0  0  0
   -1.8268    1.5259    0.4210 C   0  0  0  0  0  0  0  0  0  0  0  0
   -0.4786    0.9761    0.8315 C   0  0  0  0  0  0  0  0  0  0  0  0
    0.3517    0.4389   -0.1707 C   0  0  0  0  0  0  0  0  0  0  0  0
    1.5790   -0.1359    0.1861 C   0  0  0  0  0  0  0  0  0  0  0  0
    1.9926   -0.1861    1.5315 C   0  0  0  0  0  0  0  0  0  0  0  0
    1.1685    0.3491    2.5185 C   0  0  0  0  0  0  0  0  0  0  0  0
   -0.0628    0.9305    2.1662 C   0  0  0  0  0  0  0  0  0  0  0  0
   -0.9011    1.4874    3.0969 O   0  0  0  0  0  0  0  0  0  0  0  0
    1.5925    0.3015    3.9278 C   0  0  0  0  0  0  0  0  0  0  0  0
    0.8662    0.7903    4.7896 O   0  0  0  0  0  0  0  0  0  0  0  0
    2.8725   -0.3278    4.2969 C   0  0  0  0  0  0  0  0  0  0  0  0
    3.7141   -0.8729    3.3226 C   0  0  0  0  0  0  0  0  0  0  0  0
    3.2910   -0.7989    1.8971 C   0  0  0  0  0  0  0  0  0  0  0  0
    3.9826   -1.2289    0.9786 O   0  0  0  0  0  0  0  0  0  0  0  0
    4.9319   -1.4707    3.7172 C   0  0  0  0  0  0  0  0  0  0  0  0
    5.2722   -1.5029    5.0776 C   0  0  0  0  0  0  0  0  0  0  0  0
    4.4248   -0.9542    6.0396 C   0  0  0  0  0  0  0  0  0  0  0  0
    3.2266   -0.3674    5.6520 C   0  0  0  0  0  0  0  0  0  0  0  0
    5.7281   -1.9973    2.7372 O   0  0  0  0  0  0  0  0  0  0  0  0
    6.9587   -2.6043    3.1061 C   0  0  0  0  0  0  0  0  0  0  0  0
    2.3489   -0.6398   -0.8316 O   0  0  0  0  0  0  0  0  0  0  0  0
   -1.5264    3.8362   -0.5907 C   0  0  0  0  0  0  0  0  0  0  0  0
   -2.2251    4.7012   -1.1376 O   0  0  0  0  0  0  0  0  0  0  0  0
   -0.4024    4.2359    0.3592 C   0  0  0  0  0  0  0  0  0  0  0  0
   -0.0809    5.6139    0.2246 O   0  0  0  0  0  0  0  0  0  0  0  0
   -3.0735    2.2615   -1.5000 O   0  0  0  0  0  0  0  0  0  0  0  0
   -4.2276   -3.3981   -2.8307 N   0  0  0  0  0  0  0  0  0  0  0  0
   -5.2894   -0.9014   -2.8577 O   0  0  0  0  0  0  0  0  0  0  0  0
   -3.3571   -1.9664   -5.3865 H   0  0  0  0  0  0  0  0  0  0  0  0
   -4.7337   -0.8405   -5.4076 H   0  0  0  0  0  0  0  0  0  0  0  0
   -3.1811   -0.3968   -6.1395 H   0  0  0  0  0  0  0  0  0  0  0  0
   -3.4310    0.7578   -4.0277 H   0  0  0  0  0  0  0  0  0  0  0  0
   -3.6363   -0.2501   -1.8749 H   0  0  0  0  0  0  0  0  0  0  0  0
   -3.3482   -2.3740   -1.2753 H   0  0  0  0  0  0  0  0  0  0  0  0
   -1.9051   -3.0210   -3.8368 H   0  0  0  0  0  0  0  0  0  0  0  0
   -1.3970   -3.2027   -2.1549 H   0  0  0  0  0  0  0  0  0  0  0  0
   -0.1303   -1.4353   -3.2868 H   0  0  0  0  0  0  0  0  0  0  0  0
    0.6855    0.2826   -2.2969 H   0  0  0  0  0  0  0  0  0  0  0  0
   -1.1721    1.8525   -2.9135 H   0  0  0  0  0  0  0  0  0  0  0  0
    0.1128    2.5582   -1.9567 H   0  0  0  0  0  0  0  0  0  0  0  0
   -2.2668    2.1434    1.2130 H   0  0  0  0  0  0  0  0  0  0  0  0
   -2.5124    0.6751    0.3079 H   0  0  0  0  0  0  0  0  0  0  0  0
   -0.5068    1.3650    3.9916 H   0  0  0  0  0  0  0  0  0  0  0  0
    6.1979   -1.9524    5.4253 H   0  0  0  0  0  0  0  0  0  0  0  0
    4.7007   -0.9861    7.0916 H   0  0  0  0  0  0  0  0  0  0  0  0
    2.5704    0.0576    6.4103 H   0  0  0  0  0  0  0  0  0  0  0  0
    7.6298   -1.8798    3.5788 H   0  0  0  0  0  0  0  0  0  0  0  0
    6.7923   -3.4723    3.7521 H   0  0  0  0  0  0  0  0  0  0  0  0
    7.4438   -2.9589    2.1915 H   0  0  0  0  0  0  0  0  0  0  0  0
    3.1728   -1.0185   -0.4423 H   0  0  0  0  0  0  0  0  0  0  0  0
   -0.7178    4.0567    1.3896 H   0  0  0  0  0  0  0  0  0  0  0  0
    0.5014    3.6653    0.1374 H   0  0  0  0  0  0  0  0  0  0  0  0
   -0.9139    6.0701   -0.0105 H   0  0  0  0  0  0  0  0  0  0  0  0
   -3.2161    3.1227   -1.9473 H   0  0  0  0  0  0  0  0  0  0  0  0
   -4.2528   -3.3987   -3.8497 H   0  0  0  0  0  0  0  0  0  0  0  0
   -5.1790   -3.1066   -2.5766 H   0  0  0  0  0  0  0  0  0  0  0  0
   -5.5727    0.0293   -2.8052 H   0  0  0  0  0  0  0  0  0  0  0  0
  1  2  1  0
  2  3  1  0
  3  4  1  0
  4  5  1  0
  5  6  1  0
  6  7  1  0
  6  8  1  0
  8  9  1  0
  9 10  1  0
 10 11  1  0
 11 12  1  0
 12 13  1  0
 13 14  2  0
 14 15  1  0
 15 16  2  0
 16 17  1  0
 17 18  2  0
 18 19  1  0
 17 20  1  0
 20 21  2  0
 20 22  1  0
 22 23  1  0
 23 24  1  0
 24 25  2  0
 23 26  2  0
 26 27  1  0
 27 28  2  0
 28 29  1  0
 26 30  1  0
 30 31  1  0
 15 32  1  0
 11 33  1  0
 33 34  2  0
 33 35  1  0
 35 36  1  0
 11 37  1  6
  4 38  1  0
  3 39  1  0
  7  2  1  0
 14  9  1  0
 18 13  1  0
 24 16  1  0
 29 22  2  0
  1 40  1  0
  1 41  1  0
  1 42  1  0
  2 43  1  6
  3 44  1  1
  4 45  1  1
  5 46  1  0
  5 47  1  0
  6 48  1  6
  9 49  1  6
 10 50  1  0
 10 51  1  0
 12 52  1  0
 12 53  1  0
 19 54  1  0
 27 55  1  0
 28 56  1  0
 29 57  1  0
 31 58  1  0
 31 59  1  0
 31 60  1  0
 32 61  1  0
 35 62  1  0
 35 63  1  0
 36 64  1  0
 37 65  1  0
 38 66  1  0
 38 67  1  0
 39 68  1  0
M  END
$$$$
paclitaxel
     RDKit          3D

113119  0  0  0  0  0  0  0  0999 V2000
    0.8917    2.6019   -0.4932 C   0  0  0  0  0  0  0  0  0  0  0  0
   -0.0081    1.7148   -1.3203 C   0  0  0  0  0  0  0  0  0  0  0  0
   -1.2428    2.0761   -1.7648 C   0  0  0  0  0  0  0  0  0  0  0  0
   -1.9961    3.2396   -1.1542 C   0  0  2  0  0  0  0  0  0  0  0  0
   -3.3196    2.7285   -0.5251 C   0  0  0  0  0  0  0  0  0  0  0  0
   -4.3959    3.1797   -0.9464 O   0  0  0  0  0  0  0  0  0  0  0  0
   -3.3093    1.6873    0.6586 C   0  0  2  0  0  0  0  0  0  0  0  0
   -2.5753    2.3752    1.8427 C   0  0  2  0  0  0  0  0  0  0  0  0
   -2.7367    1.6390    3.1604 C   0  0  0  0  0  0  0  0  0  0  0  0
   -2.4304    0.1594    3.0168 C   0  0  2  0  0  0  0  0  0  0  0  0
   -2.4332   -0.6214    1.6385 C   0  0  2  0  0  0  0  0  0  0  0  0
   -2.5490    0.3152    0.3780 C   0  0  1  0  0  0  0  0  0  0  0  0
   -2.9408   -0.4209   -0.9551 C   0  0  1  0  0  0  0  0  0  0  0  0
   -1.9509   -0.2507   -2.2173 C   0  0  1  0  0  0  0  0  0  0  0  0
   -1.9353    1.1903   -2.8245 C   0  0  0  0  0  0  0  0  0  0  0  0
   -1.1068    1.2658   -4.1505 C   0  0  0  0  0  0  0  0  0  0  0  0
   -3.3544    1.5912   -3.3233 C   0  0  0  0  0  0  0  0  0  0  0  0
   -0.5035   -0.7480   -1.9265 C   0  0  0  0  0  0  0  0  0  0  0  0
    0.5647    0.3368   -1.6319 C   0  0  2  0  0  0  0  0  0  0  0  0
    1.3438   -0.1105   -0.4993 O   0  0  0  0  0  0  0  0  0  0  0  0
    2.4130   -0.9078   -0.7946 C   0  0  0  0  0  0  0  0  0  0  0  0
    2.6809   -1.3262   -1.9154 O   0  0  0  0  0  0  0  0  0  0  0  0
    3.2008   -1.2863    0.4703 C   0  0  1  0  0  0  0  0  0  0  0  0
    4.7368   -1.1752    0.2052 C   0  0  2  0  0  0  0  0  0  0  0  0
    5.4430   -2.4515    0.6544 C   0  0  0  0  0  0  0  0  0  0  0  0
    5.4605   -2.8256    2.0090 C   0  0  0  0  0  0  0  0  0  0  0  0
    6.1104   -3.9916    2.4144 C   0  0  0  0  0  0  0  0  0  0  0  0
    6.7505   -4.7955    1.4736 C   0  0  0  0  0  0  0  0  0  0  0  0
    6.7412   -4.4355    0.1272 C   0  0  0  0  0  0  0  0  0  0  0  0
    6.0917   -3.2697   -0.2823 C   0  0  0  0  0  0  0  0  0  0  0  0
    5.4267   -0.0401    0.8314 N   0  0  0  0  0  0  0  0  0  0  0  0
    5.0069    1.2566    0.6649 C   0  0  0  0  0  0  0  0  0  0  0  0
    3.9211    1.5306    0.1669 O   0  0  0  0  0  0  0  0  0  0  0  0
    5.9270    2.3304    1.1251 C   0  0  0  0  0  0  0  0  0  0  0  0
    6.8551    2.1242    2.1542 C   0  0  0  0  0  0  0  0  0  0  0  0
    7.6948    3.1664    2.5546 C   0  0  0  0  0  0  0  0  0  0  0  0
    7.6058    4.4140    1.9371 C   0  0  0  0  0  0  0  0  0  0  0  0
    6.6727    4.6277    0.9233 C   0  0  0  0  0  0  0  0  0  0  0  0
    5.8309    3.5900    0.5201 C   0  0  0  0  0  0  0  0  0  0  0  0
    2.7954   -0.6105    1.6634 O   0  0  0  0  0  0  0  0  0  0  0  0
   -2.4648   -1.1378   -3.2440 O   0  0  0  0  0  0  0  0  0  0  0  0
   -3.0546   -1.8644   -0.7841 O   0  0  0  0  0  0  0  0  0  0  0  0
   -4.3156   -2.3785   -0.7609 C   0  0  0  0  0  0  0  0  0  0  0  0
   -5.3365   -1.7246   -0.6194 O   0  0  0  0  0  0  0  0  0  0  0  0
   -4.3157   -3.8510   -0.9750 C   0  0  0  0  0  0  0  0  0  0  0  0
   -5.5399   -4.5285   -0.8867 C   0  0  0  0  0  0  0  0  0  0  0  0
   -5.6021   -5.9054   -1.1095 C   0  0  0  0  0  0  0  0  0  0  0  0
   -4.4434   -6.6129   -1.4250 C   0  0  0  0  0  0  0  0  0  0  0  0
   -3.2221   -5.9469   -1.5183 C   0  0  0  0  0  0  0  0  0  0  0  0
   -3.1563   -4.5689   -1.2973 C   0  0  0  0  0  0  0  0  0  0  0  0
   -3.6726   -1.3333    2.2709 C   0  0  0  0  0  0  0  0  0  0  0  0
   -3.5550   -0.6019    3.5048 O   0  0  0  0  0  0  0  0  0  0  0  0
   -1.1594   -1.3417    1.5182 O   0  0  0  0  0  0  0  0  0  0  0  0
   -1.1247   -2.6992    1.5053 C   0  0  0  0  0  0  0  0  0  0  0  0
   -2.0742   -3.4563    1.3900 O   0  0  0  0  0  0  0  0  0  0  0  0
    0.2898   -3.1787    1.5887 C   0  0  0  0  0  0  0  0  0  0  0  0
   -3.0024    3.7182    2.0306 O   0  0  0  0  0  0  0  0  0  0  0  0
   -4.8108    1.4641    0.9918 C   0  0  0  0  0  0  0  0  0  0  0  0
   -2.1978    4.1892   -2.2023 O   0  0  0  0  0  0  0  0  0  0  0  0
   -2.4993    5.4485   -1.7920 C   0  0  0  0  0  0  0  0  0  0  0  0
   -2.4841    5.8454   -0.6366 O   0  0  0  0  0  0  0  0  0  0  0  0
   -2.8277    6.3046   -2.9762 C   0  0  0  0  0  0  0  0  0  0  0  0
    0.9253    2.2635    0.5466 H   0  0  0  0  0  0  0  0  0  0  0  0
    1.9033    2.5823   -0.9098 H   0  0  0  0  0  0  0  0  0  0  0  0
    0.5961    3.6536   -0.5070 H   0  0  0  0  0  0  0  0  0  0  0  0
   -1.4380    3.7112   -0.3424 H   0  0  0  0  0  0  0  0  0  0  0  0
   -1.5040    2.4339    1.6166 H   0  0  0  0  0  0  0  0  0  0  0  0
   -3.7426    1.8037    3.5679 H   0  0  0  0  0  0  0  0  0  0  0  0
   -2.0707    2.0893    3.9083 H   0  0  0  0  0  0  0  0  0  0  0  0
   -1.5420   -0.0808    3.6185 H   0  0  0  0  0  0  0  0  0  0  0  0
   -1.5137    0.6212    0.2466 H   0  0  0  0  0  0  0  0  0  0  0  0
   -3.9175   -0.0568   -1.2758 H   0  0  0  0  0  0  0  0  0  0  0  0
   -1.0857    2.2952   -4.5305 H   0  0  0  0  0  0  0  0  0  0  0  0
   -0.0686    0.9471   -4.0587 H   0  0  0  0  0  0  0  0  0  0  0  0
   -1.5478    0.6385   -4.9345 H   0  0  0  0  0  0  0  0  0  0  0  0
   -3.6687    0.9568   -4.1621 H   0  0  0  0  0  0  0  0  0  0  0  0
   -3.3810    2.6207   -3.6947 H   0  0  0  0  0  0  0  0  0  0  0  0
   -4.1398    1.4823   -2.5793 H   0  0  0  0  0  0  0  0  0  0  0  0
   -0.1416   -1.3177   -2.7950 H   0  0  0  0  0  0  0  0  0  0  0  0
   -0.5229   -1.4947   -1.1251 H   0  0  0  0  0  0  0  0  0  0  0  0
    1.2371    0.4617   -2.4895 H   0  0  0  0  0  0  0  0  0  0  0  0
    2.9320   -2.3378    0.6270 H   0  0  0  0  0  0  0  0  0  0  0  0
    4.9194   -1.0557   -0.8701 H   0  0  0  0  0  0  0  0  0  0  0  0
    4.9612   -2.2081    2.7548 H   0  0  0  0  0  0  0  0  0  0  0  0
    6.1154   -4.2740    3.4642 H   0  0  0  0  0  0  0  0  0  0  0  0
    7.2556   -5.7049    1.7894 H   0  0  0  0  0  0  0  0  0  0  0  0
    7.2397   -5.0654   -0.6057 H   0  0  0  0  0  0  0  0  0  0  0  0
    6.0947   -3.0093   -1.3393 H   0  0  0  0  0  0  0  0  0  0  0  0
    6.4051   -0.1915    1.0408 H   0  0  0  0  0  0  0  0  0  0  0  0
    6.9206    1.1727    2.6741 H   0  0  0  0  0  0  0  0  0  0  0  0
    8.4129    3.0096    3.3562 H   0  0  0  0  0  0  0  0  0  0  0  0
    8.2584    5.2246    2.2532 H   0  0  0  0  0  0  0  0  0  0  0  0
    6.5976    5.6035    0.4492 H   0  0  0  0  0  0  0  0  0  0  0  0
    5.1023    3.7661   -0.2687 H   0  0  0  0  0  0  0  0  0  0  0  0
    2.8759    0.3419    1.4452 H   0  0  0  0  0  0  0  0  0  0  0  0
   -2.5652   -2.0169   -2.8369 H   0  0  0  0  0  0  0  0  0  0  0  0
   -6.4521   -3.9859   -0.6448 H   0  0  0  0  0  0  0  0  0  0  0  0
   -6.5547   -6.4244   -1.0362 H   0  0  0  0  0  0  0  0  0  0  0  0
   -4.4919   -7.6858   -1.5951 H   0  0  0  0  0  0  0  0  0  0  0  0
   -2.3186   -6.5023   -1.7575 H   0  0  0  0  0  0  0  0  0  0  0  0
   -2.1912   -4.0756   -1.3628 H   0  0  0  0  0  0  0  0  0  0  0  0
   -3.6319   -2.3980    2.4950 H   0  0  0  0  0  0  0  0  0  0  0  0
   -4.6357   -1.1535    1.7909 H   0  0  0  0  0  0  0  0  0  0  0  0
    0.3021   -4.2007    1.9780 H   0  0  0  0  0  0  0  0  0  0  0  0
    0.7344   -3.1640    0.5922 H   0  0  0  0  0  0  0  0  0  0  0  0
    0.8613   -2.5548    2.2802 H   0  0  0  0  0  0  0  0  0  0  0  0
   -3.9485    3.7375    2.2625 H   0  0  0  0  0  0  0  0  0  0  0  0
   -5.3247    0.9372    0.1817 H   0  0  0  0  0  0  0  0  0  0  0  0
   -4.9834    0.9080    1.9105 H   0  0  0  0  0  0  0  0  0  0  0  0
   -5.3387    2.4152    1.1339 H   0  0  0  0  0  0  0  0  0  0  0  0
   -1.9461    6.4092   -3.6132 H   0  0  0  0  0  0  0  0  0  0  0  0
   -3.6564    5.8622   -3.5351 H   0  0  0  0  0  0  0  0  0  0  0  0
   -3.1344    7.2966   -2.6325 H   0  0  0  0  0  0  0  0  0  0  0  0
  1  2  1  0
  2  3  2  0
  3  4  1  0
  4  5  1  0
  5  6  2  0
  5  7  1  0
  7  8  1  0
  8  9  1  0
  9 10  1  0
 10 11  1  0
 11 12  1  0
 12 13  1  0
 13 14  1  0
 14 15  1  0
 15 16  1  0
 15 17  1  0
 14 18  1  0
 18 19  1  0
 19 20  1  0
 20 21  1  0
 21 22  2  0
 21 23  1  0
 23 24  1  0
 24 25  1  0
 25 26  2  0
 26 27  1  0
 27 28  2  0
 28 29  1  0
 29 30  2  0
 24 31  1  0
 31 32  1  0
 32 33  2  0
 32 34  1  0
 34 35  2  0
 35 36  1  0
 36 37  2  0
 37 38  1  0
 38 39  2  0
 23 40  1  0
 14 41  1  6
 13 42  1  0
 42 43  1  0
 43 44  2  0
 43 45  1  0
 45 46  2  0
 46 47  1  0
 47 48  2  0
 48 49  1  0
 49 50  2  0
 11 51  1  0
 51 52  1  0
 11 53  1  6
 53 54  1  0
 54 55  2  0
 54 56  1  0
  8 57  1  0
  7 58  1  1
  4 59  1  0
 59 60  1  0
 60 61  2  0
 60 62  1  0
 19  2  1  0
 15  3  1  0
 12  7  1  0
 52 10  1  0
 30 25  1  0
 39 34  1  0
 50 45  1  0
  1 63  1  0
  1 64  1  0
  1 65  1  0
  4 66  1  1
  8 67  1  6
  9 68  1  0
  9 69  1  0
 10 70  1  1
 12 71  1  6
 13 72  1  6
 16 73  1  0
 16 74  1  0
 16 75  1  0
 17 76  1  0
 17 77  1  0
 17 78  1  0
 18 79  1  0
 18 80  1  0
 19 81  1  6
 23 82  1  1
 24 83  1  6
 26 84  1  0
 27 85  1  0
 28 86  1  0
 29 87  1  0
 30 88  1  0
 31 89  1  0
 35 90  1  0
 36 91  1  0
 37 92  1  0
 38 93  1  0
 39 94  1  0
 40 95  1  0
 41 96  1  0
 46 97  1  0
 47 98  1  0
 48 99  1  0
 49100  1  0
 50101  1  0
 51102  1  0
 51103  1  0
 56104  1  0
 56105  1  0
 56106  1  0
 57107  1  0
 58108  1  0
 58109  1  0
 58110  1  0
 62111  1  0
 62112  1  0
 62113  1  0
M  END
$$$$
cisplatin
     RDKit          3D

 11  8  0  0  0  0  0  0  0  0999 V2000
   -0.0021   -0.0019    0.2916 N   0  0  0  0  0  0  0  0  0  0  0  0
   -0.0021   -0.0019    0.2916 N   0  0  0  0  0  0  0  0  0  0  0  0
    1.8191    0.0881    0.0000 Cl  0  0  0  0  0  0  0  0  0  0  0  0
   -0.1274    0.6768    0.0000 Pt  0  0  0  0  0  2  0  0  0  0  0  0
   -1.6917    0.8735    0.0000 Cl  0  0  0  0  0  0  0  0  0  0  0  0
   -0.5465   -0.8014   -0.0980 H   0  0  0  0  0  0  0  0  0  0  0  0
   -0.4153    0.8728   -0.0970 H   0  0  0  0  0  0  0  0  0  0  0  0
    0.9639   -0.0695   -0.0967 H   0  0  0  0  0  0  0  0  0  0  0  0
   -0.5465   -0.8014   -0.0980 H   0  0  0  0  0  0  0  0  0  0  0  0
   -0.4153    0.8728   -0.0970 H   0  0  0  0  0  0  0  0  0  0  0  0
    0.9639   -0.0695   -0.0967 H   0  0  0  0  0  0  0  0  0  0  0  0
  3  4  1  0
  4  5  1  0
  1  6  1  0
  1  7  1  0
  1  8  1  0
  2  9  1  0
  2 10  1  0
  2 11  1  0
M  END
$$$$
erlotinib
     RDKit          3D

 52 54  0  0  0  0  0  0  0  0999 V2000
   -2.5088   -4.8059   -1.9694 C   0  0  0  0  0  0  0  0  0  0  0  0
   -1.4201   -4.0813   -1.4117 O   0  0  0  0  0  0  0  0  0  0  0  0
   -1.8333   -3.0957   -0.4647 C   0  0  0  0  0  0  0  0  0  0  0  0
   -2.2550   -1.7969   -1.1524 C   0  0  0  0  0  0  0  0  0  0  0  0
   -2.5851   -0.7868   -0.2012 O   0  0  0  0  0  0  0  0  0  0  0  0
   -1.6120    0.0674    0.2365 C   0  0  0  0  0  0  0  0  0  0  0  0
   -2.0213    1.1348    1.0425 C   0  0  0  0  0  0  0  0  0  0  0  0
   -1.0817    2.0074    1.5996 C   0  0  0  0  0  0  0  0  0  0  0  0
    0.2744    1.8803    1.3470 C   0  0  0  0  0  0  0  0  0  0  0  0
    0.7064    0.8388    0.5163 C   0  0  0  0  0  0  0  0  0  0  0  0
   -0.2474   -0.0704   -0.0226 C   0  0  0  0  0  0  0  0  0  0  0  0
    2.0997    0.7748    0.3017 C   0  0  0  0  0  0  0  0  0  0  0  0
    2.9496    1.6455    0.8746 N   0  0  0  0  0  0  0  0  0  0  0  0
    2.4142    2.5905    1.6502 C   0  0  0  0  0  0  0  0  0  0  0  0
    1.1138    2.7541    1.9093 N   0  0  0  0  0  0  0  0  0  0  0  0
    2.6127   -0.2312   -0.5629 N   0  0  0  0  0  0  0  0  0  0  0  0
    3.9511   -0.6615   -0.7149 C   0  0  0  0  0  0  0  0  0  0  0  0
    4.3297   -1.2897   -1.9126 C   0  0  0  0  0  0  0  0  0  0  0  0
    5.6218   -1.7923   -2.0889 C   0  0  0  0  0  0  0  0  0  0  0  0
    6.5514   -1.6973   -1.0561 C   0  0  0  0  0  0  0  0  0  0  0  0
    6.1833   -1.1118    0.1548 C   0  0  0  0  0  0  0  0  0  0  0  0
    4.8878   -0.6104    0.3254 C   0  0  0  0  0  0  0  0  0  0  0  0
    7.1284   -1.0340    1.2269 C   0  0  0  0  0  0  0  0  0  0  0  0
    7.9204   -0.9682    2.1271 C   0  0  0  0  0  0  0  0  0  0  0  0
   -3.3230    1.3703    1.4061 O   0  0  0  0  0  0  0  0  0  0  0  0
   -4.2070    1.5301    0.2853 C   0  0  0  0  0  0  0  0  0  0  0  0
   -5.2689    2.5671    0.6499 C   0  0  0  0  0  0  0  0  0  0  0  0
   -4.6934    3.8771    0.5934 O   0  0  0  0  0  0  0  0  0  0  0  0
   -5.6196    4.8744    1.0013 C   0  0  0  0  0  0  0  0  0  0  0  0
   -3.0682   -5.3229   -1.1839 H   0  0  0  0  0  0  0  0  0  0  0  0
   -3.1721   -4.1438   -2.5324 H   0  0  0  0  0  0  0  0  0  0  0  0
   -2.1047   -5.5543   -2.6566 H   0  0  0  0  0  0  0  0  0  0  0  0
   -2.6320   -3.4782    0.1827 H   0  0  0  0  0  0  0  0  0  0  0  0
   -0.9795   -2.9074    0.1941 H   0  0  0  0  0  0  0  0  0  0  0  0
   -1.5242   -1.4596   -1.8973 H   0  0  0  0  0  0  0  0  0  0  0  0
   -3.1680   -1.9831   -1.7293 H   0  0  0  0  0  0  0  0  0  0  0  0
   -1.4267    2.8140    2.2431 H   0  0  0  0  0  0  0  0  0  0  0  0
    0.1206   -0.9022   -0.6143 H   0  0  0  0  0  0  0  0  0  0  0  0
    3.0994    3.2933    2.1113 H   0  0  0  0  0  0  0  0  0  0  0  0
    2.1452   -0.1582   -1.4604 H   0  0  0  0  0  0  0  0  0  0  0  0
    3.6184   -1.3926   -2.7283 H   0  0  0  0  0  0  0  0  0  0  0  0
    5.8992   -2.2633   -3.0281 H   0  0  0  0  0  0  0  0  0  0  0  0
    7.5550   -2.0909   -1.1954 H   0  0  0  0  0  0  0  0  0  0  0  0
    4.6121   -0.1829    1.2859 H   0  0  0  0  0  0  0  0  0  0  0  0
    8.6202   -0.9079    2.9275 H   0  0  0  0  0  0  0  0  0  0  0  0
   -3.6688    1.8562   -0.6140 H   0  0  0  0  0  0  0  0  0  0  0  0
   -4.6998    0.5702    0.0995 H   0  0  0  0  0  0  0  0  0  0  0  0
   -5.6503    2.3814    1.6605 H   0  0  0  0  0  0  0  0  0  0  0  0
   -6.0929    2.5172   -0.0702 H   0  0  0  0  0  0  0  0  0  0  0  0
   -5.9212    4.7148    2.0409 H   0  0  0  0  0  0  0  0  0  0  0  0
   -6.4981    4.8714    0.3489 H   0  0  0  0  0  0  0  0  0  0  0  0
   -5.1313    5.8496    0.9256 H   0  0  0  0  0  0  0  0  0  0  0  0
  1  2  1  0
  2  3  1  0
  3  4  1  0
  4  5  1  0
  5  6  1  0
  6  7  1  0
  7  8  2  0
  8  9  1  0
  9 10  1  0
 10 11  1  0
 10 12  2  0
 12 13  1  0
 13 14  2  0
 14 15  1  0
 12 16  1  0
 16 17  1  0
 17 18  2  0
 18 19  1  0
 19 20  2  0
 20 21  1  0
 21 22  2  0
 21 23  1  0
 23 24  3  0
  7 25  1  0
 25 26  1  0
 26 27  1  0
 27 28  1  0
 28 29  1  0
 11  6  2  0
 15  9  2  0
 22 17  1  0
  1 30  1  0
  1 31  1  0
  1 32  1  0
  3 33  1  0
  3 34  1  0
  4 35  1  0
  4 36  1  0
  8 37  1  0
 11 38  1  0
 14 39  1  0
 16 40  1  0
 18 41  1  0
 19 42  1  0
 20 43  1  0
 22 44  1  0
 24 45  1  0
 26 46  1  0
 26 47  1  0
 27 48  1  0
 27 49  1  0
 29 50  1  0
 29 51  1  0
 29 52  1  0
M  END
$$$$
etoposide
     RDKit          3D

 74 80  0  0  0  0  0  0  0  0999 V2000
    6.7264    3.4089   -0.7183 C   0  0  0  0  0  0  0  0  0  0  0  0
    5.5371    2.6188   -0.2017 C   0  0  2  0  0  0  0  0  0  0  0  0
    5.7355    2.3815    1.1908 O   0  0  0  0  0  0  0  0  0  0  0  0
    4.6629    1.6282    1.7463 C   0  0  0  0  0  0  0  0  0  0  0  0
    4.4929    0.3039    1.0038 C   0  0  2  0  0  0  0  0  0  0  0  0
    4.3715    0.5920   -0.4909 C   0  0  1  0  0  0  0  0  0  0  0  0
    5.4713    1.3945   -0.9292 O   0  0  0  0  0  0  0  0  0  0  0  0
    4.3449   -0.7362   -1.2693 C   0  0  1  0  0  0  0  0  0  0  0  0
    3.6729   -1.8722   -0.4699 C   0  0  2  0  0  0  0  0  0  0  0  0
    2.7349   -1.3137    0.6225 C   0  0  1  0  0  0  0  0  0  0  0  0
    3.3890   -0.4293    1.5410 O   0  0  0  0  0  0  0  0  0  0  0  0
    1.6482   -0.6239    0.0006 O   0  0  0  0  0  0  0  0  0  0  0  0
    0.4321   -0.6808    0.7559 C   0  0  1  0  0  0  0  0  0  0  0  0
   -0.2160    0.6979    0.7695 C   0  0  1  0  0  0  0  0  0  0  0  0
    0.6439    1.8815    1.1236 C   0  0  0  0  0  0  0  0  0  0  0  0
   -0.0556    2.9989    0.5580 O   0  0  0  0  0  0  0  0  0  0  0  0
   -0.8097    2.5663   -0.5045 C   0  0  0  0  0  0  0  0  0  0  0  0
   -1.4089    3.3055   -1.2661 O   0  0  0  0  0  0  0  0  0  0  0  0
   -0.6755    1.0774   -0.6254 C   0  0  2  0  0  0  0  0  0  0  0  0
   -1.8789    0.2339   -1.0450 C   0  0  1  0  0  0  0  0  0  0  0  0
   -1.5294   -1.2533   -0.8436 C   0  0  0  0  0  0  0  0  0  0  0  0
   -2.3082   -2.2125   -1.5234 C   0  0  0  0  0  0  0  0  0  0  0  0
   -2.0489   -3.5454   -1.2988 C   0  0  0  0  0  0  0  0  0  0  0  0
   -1.0647   -3.9531   -0.4348 C   0  0  0  0  0  0  0  0  0  0  0  0
   -0.2738   -3.0544    0.2492 C   0  0  0  0  0  0  0  0  0  0  0  0
   -0.4874   -1.6772    0.0481 C   0  0  0  0  0  0  0  0  0  0  0  0
   -0.9783   -5.3074   -0.3472 O   0  0  0  0  0  0  0  0  0  0  0  0
   -2.0132   -5.7057   -1.2717 C   0  0  0  0  0  0  0  0  0  0  0  0
   -2.7087   -4.5899   -1.8652 O   0  0  0  0  0  0  0  0  0  0  0  0
   -3.2056    0.6287   -0.3854 C   0  0  0  0  0  0  0  0  0  0  0  0
   -3.6845    0.0183    0.7904 C   0  0  0  0  0  0  0  0  0  0  0  0
   -4.9046    0.4014    1.3502 C   0  0  0  0  0  0  0  0  0  0  0  0
   -5.6431    1.4248    0.7431 C   0  0  0  0  0  0  0  0  0  0  0  0
   -5.1910    2.0625   -0.4139 C   0  0  0  0  0  0  0  0  0  0  0  0
   -3.9839    1.6424   -0.9799 C   0  0  0  0  0  0  0  0  0  0  0  0
   -5.9897    3.0480   -0.9298 O   0  0  0  0  0  0  0  0  0  0  0  0
   -5.3662    3.9748   -1.8100 C   0  0  0  0  0  0  0  0  0  0  0  0
   -6.8358    1.8059    1.3100 O   0  0  0  0  0  0  0  0  0  0  0  0
   -5.4728   -0.1315    2.4808 O   0  0  0  0  0  0  0  0  0  0  0  0
   -4.8493   -1.2880    3.0269 C   0  0  0  0  0  0  0  0  0  0  0  0
    4.6599   -2.7395    0.1109 O   0  0  0  0  0  0  0  0  0  0  0  0
    3.6528   -0.5336   -2.5156 O   0  0  0  0  0  0  0  0  0  0  0  0
    6.6286    3.6082   -1.7901 H   0  0  0  0  0  0  0  0  0  0  0  0
    6.8299    4.3572   -0.1816 H   0  0  0  0  0  0  0  0  0  0  0  0
    7.6559    2.8468   -0.5729 H   0  0  0  0  0  0  0  0  0  0  0  0
    4.6204    3.2023   -0.3580 H   0  0  0  0  0  0  0  0  0  0  0  0
    3.7433    2.2242    1.7256 H   0  0  0  0  0  0  0  0  0  0  0  0
    4.8829    1.4411    2.8030 H   0  0  0  0  0  0  0  0  0  0  0  0
    5.4106   -0.2726    1.1795 H   0  0  0  0  0  0  0  0  0  0  0  0
    3.4499    1.1481   -0.7067 H   0  0  0  0  0  0  0  0  0  0  0  0
    5.3664   -1.0268   -1.5414 H   0  0  0  0  0  0  0  0  0  0  0  0
    3.0853   -2.4932   -1.1564 H   0  0  0  0  0  0  0  0  0  0  0  0
    2.3732   -2.1587    1.2181 H   0  0  0  0  0  0  0  0  0  0  0  0
    0.6100   -0.9902    1.7941 H   0  0  0  0  0  0  0  0  0  0  0  0
   -1.0692    0.6912    1.4607 H   0  0  0  0  0  0  0  0  0  0  0  0
    0.7313    2.0163    2.2056 H   0  0  0  0  0  0  0  0  0  0  0  0
    1.6446    1.8539    0.6867 H   0  0  0  0  0  0  0  0  0  0  0  0
    0.1380    0.9183   -1.3499 H   0  0  0  0  0  0  0  0  0  0  0  0
   -2.0055    0.3736   -2.1290 H   0  0  0  0  0  0  0  0  0  0  0  0
   -3.1081   -1.9201   -2.1978 H   0  0  0  0  0  0  0  0  0  0  0  0
    0.4920   -3.4275    0.9202 H   0  0  0  0  0  0  0  0  0  0  0  0
   -2.7400   -6.3276   -0.7367 H   0  0  0  0  0  0  0  0  0  0  0  0
   -1.5591   -6.3028   -2.0711 H   0  0  0  0  0  0  0  0  0  0  0  0
   -3.0985   -0.7664    1.2561 H   0  0  0  0  0  0  0  0  0  0  0  0
   -3.6266    2.1015   -1.8985 H   0  0  0  0  0  0  0  0  0  0  0  0
   -6.0618    4.8046   -1.9682 H   0  0  0  0  0  0  0  0  0  0  0  0
   -4.4483    4.3877   -1.3776 H   0  0  0  0  0  0  0  0  0  0  0  0
   -5.1720    3.5150   -2.7842 H   0  0  0  0  0  0  0  0  0  0  0  0
   -6.9435    1.2320    2.0908 H   0  0  0  0  0  0  0  0  0  0  0  0
   -3.8570   -1.0478    3.4224 H   0  0  0  0  0  0  0  0  0  0  0  0
   -5.4647   -1.6359    3.8622 H   0  0  0  0  0  0  0  0  0  0  0  0
   -4.7978   -2.0975    2.2910 H   0  0  0  0  0  0  0  0  0  0  0  0
    4.9838   -2.3494    0.9411 H   0  0  0  0  0  0  0  0  0  0  0  0
    2.7134   -0.3692   -2.3186 H   0  0  0  0  0  0  0  0  0  0  0  0
  1  2  1  0
  2  3  1  0
  3  4  1  0
  4  5  1  0
  5  6  1  0
  6  7  1  0
  6  8  1  0
  8  9  1  0
  9 10  1  0
 10 11  1  0
 10 12  1  0
 12 13  1  0
 13 14  1  0
 14 15  1  0
 15 16  1  0
 16 17  1  0
 17 18  2  0
 17 19  1  0
 19 20  1  0
 20 21  1  0
 21 22  1  0
 22 23  2  0
 23 24  1  0
 24 25  2  0
 25 26  1  0
 24 27  1  0
 27 28  1  0
 28 29  1  0
 20 30  1  0
 30 31  1  0
 31 32  2  0
 32 33  1  0
 33 34  2  0
 34 35  1  0
 34 36  1  0
 36 37  1  0
 33 38  1  0
 32 39  1  0
 39 40  1  0
  9 41  1  0
  8 42  1  0
  7  2  1  0
 11  5  1  0
 26 13  1  0
 19 14  1  0
 26 21  2  0
 29 23  1  0
 35 30  2  0
  1 43  1  0
  1 44  1  0
  1 45  1  0
  2 46  1  1
  4 47  1  0
  4 48  1  0
  5 49  1  6
  6 50  1  1
  8 51  1  6
  9 52  1  6
 10 53  1  1
 13 54  1  1
 14 55  1  1
 15 56  1  0
 15 57  1  0
 19 58  1  6
 20 59  1  6
 22 60  1  0
 25 61  1  0
 28 62  1  0
 28 63  1  0
 31 64  1  0
 35 65  1  0
 37 66  1  0
 37 67  1  0
 37 68  1  0
 38 69  1  0
 40 70  1  0
 40 71  1  0
 40 72  1  0
 41 73  1  0
 42 74  1  0
M  END
$$$$
